MODEL 1
REMARK VINA RESULT:    -8.931      0.000      0.000
REMARK INTER + INTRA:         -13.757
REMARK INTER:                 -12.568
REMARK INTRA:                  -1.189
REMARK UNBOUND:                -1.694
REMARK  7 active torsions:
REMARK  status: ('A' for Active; 'I' for Inactive)
REMARK    1  A    between atoms: C_6  and  C_7 
REMARK    2  A    between atoms: C_7  and  N_8 
REMARK       I    between atoms: N_8  and  C_10 
REMARK    3  A    between atoms: C_10  and  C_12 
REMARK    4  A    between atoms: C_14  and  C_15 
REMARK    5  A    between atoms: N_21  and  C_22 
REMARK    6  A    between atoms: C_29  and  O_30 
REMARK    7  A    between atoms: C_32  and  O_33 
ROOT
HETATM    1  C   UNL     1       4.308  10.272  23.576  0.00  0.00     0.066 C 
HETATM    2  C   UNL     1       5.102  11.114  24.392  0.00  0.00     0.038 C 
HETATM    3  C   UNL     1       6.236  11.765  23.872  0.00  0.00     0.046 C 
HETATM    4  C   UNL     1       6.478  11.688  22.495  0.00  0.00     0.082 C 
HETATM    5  C   UNL     1       5.758  10.808  21.701  0.00  0.00     0.075 C 
HETATM    6  C   UNL     1       4.747  10.033  22.267  0.00  0.00     0.084 C 
ENDROOT
BRANCH   3   7
HETATM    7  C   UNL     1       7.218  12.518  24.700  0.00  0.00     0.172 A 
HETATM    8  N   UNL     1       8.291  11.914  25.150  0.00  0.00    -0.151 NA
HETATM    9  N   UNL     1       8.922  12.860  25.896  0.00  0.00    -0.226 N 
HETATM   10  H   UNL     1       9.729  12.661  26.471  0.00  0.00     0.194 HD
HETATM   11  C   UNL     1       8.168  14.040  25.960  0.00  0.00     0.349 A 
HETATM   12  O   UNL     1       8.432  14.963  26.702  0.00  0.00    -0.245 OA
HETATM   13  N   UNL     1       7.095  13.825  25.109  0.00  0.00    -0.244 N 
BRANCH  13  14
HETATM   14  C   UNL     1       6.022  14.731  24.978  0.00  0.00     0.051 A 
HETATM   15  C   UNL     1       5.132  14.922  26.047  0.00  0.00     0.031 A 
HETATM   16  C   UNL     1       3.980  15.701  25.893  0.00  0.00     0.002 A 
HETATM   17  C   UNL     1       3.693  16.275  24.662  0.00  0.00     0.001 A 
HETATM   18  C   UNL     1       4.597  16.149  23.612  0.00  0.00     0.009 A 
HETATM   19  C   UNL     1       5.786  15.412  23.764  0.00  0.00    -0.035 A 
HETATM   20  C   UNL     1       6.752  15.417  22.608  0.00  0.00     0.050 C 
ENDBRANCH  13  14
ENDBRANCH   3   7
BRANCH   4  21
HETATM   21  O   UNL     1       7.446  12.407  21.848  0.00  0.00    -0.360 OA
HETATM   22  H   UNL     1       7.492  12.095  20.916  0.00  0.00     0.217 HD
ENDBRANCH   4  21
BRANCH   1  23
HETATM   23  C   UNL     1       3.110   9.623  24.210  0.00  0.00     0.256 C 
HETATM   24  N   UNL     1       2.007  10.364  24.678  0.00  0.00    -0.348 N 
HETATM   25  C   UNL     1       1.800  11.787  24.467  0.00  0.00     0.153 C 
HETATM   26  O   UNL     1       3.172   8.398  24.355  0.00  0.00    -0.267 OA
BRANCH  24  27
HETATM   27  C   UNL     1       0.843   9.643  25.192  0.00  0.00     0.164 C 
BRANCH  27  28
HETATM   28  C   UNL     1      -0.489  10.349  25.024  0.00  0.00    -0.040 A 
HETATM   29  C   UNL     1      -1.265  10.751  26.125  0.00  0.00     0.009 A 
HETATM   30  C   UNL     1      -2.361  11.602  25.947  0.00  0.00     0.001 A 
HETATM   31  C   UNL     1      -2.673  12.089  24.677  0.00  0.00     0.007 A 
HETATM   32  C   UNL     1      -1.924  11.679  23.569  0.00  0.00    -0.061 A 
HETATM   33  C   UNL     1      -2.101  12.322  22.225  0.00  0.00     0.048 C 
HETATM   34  C   UNL     1      -0.877  10.765  23.745  0.00  0.00     0.015 A 
ENDBRANCH  27  28
ENDBRANCH  24  27
ENDBRANCH   1  23
BRANCH   6  35
HETATM   35  O   UNL     1       4.259   8.996  21.525  0.00  0.00    -0.360 OA
HETATM   36  H   UNL     1       4.765   8.927  20.697  0.00  0.00     0.217 HD
ENDBRANCH   6  35
TORSDOF 7
ENDMDL
MODEL 2
REMARK VINA RESULT:    -8.891      3.179      5.022
REMARK INTER + INTRA:         -13.704
REMARK INTER:                 -12.054
REMARK INTRA:                  -1.650
REMARK UNBOUND:                -1.694
REMARK  7 active torsions:
REMARK  status: ('A' for Active; 'I' for Inactive)
REMARK    1  A    between atoms: C_6  and  C_7 
REMARK    2  A    between atoms: C_7  and  N_8 
REMARK       I    between atoms: N_8  and  C_10 
REMARK    3  A    between atoms: C_10  and  C_12 
REMARK    4  A    between atoms: C_14  and  C_15 
REMARK    5  A    between atoms: N_21  and  C_22 
REMARK    6  A    between atoms: C_29  and  O_30 
REMARK    7  A    between atoms: C_32  and  O_33 
ROOT
HETATM    1  C   UNL     1       6.910  12.953  24.643  0.00  0.00     0.066 C 
HETATM    2  C   UNL     1       7.654  12.750  23.456  0.00  0.00     0.038 C 
HETATM    3  C   UNL     1       8.761  11.881  23.435  0.00  0.00     0.046 C 
HETATM    4  C   UNL     1       9.020  11.103  24.571  0.00  0.00     0.082 C 
HETATM    5  C   UNL     1       8.351  11.347  25.761  0.00  0.00     0.075 C 
HETATM    6  C   UNL     1       7.373  12.338  25.814  0.00  0.00     0.084 C 
ENDROOT
BRANCH   3   7
HETATM    7  C   UNL     1       9.697  11.751  22.286  0.00  0.00     0.172 A 
HETATM    8  N   UNL     1       9.924  10.573  21.759  0.00  0.00    -0.151 NA
HETATM    9  N   UNL     1      10.848  10.810  20.789  0.00  0.00    -0.226 N 
HETATM   10  H   UNL     1      11.311  10.072  20.276  0.00  0.00     0.194 HD
HETATM   11  C   UNL     1      11.245  12.154  20.786  0.00  0.00     0.349 A 
HETATM   12  O   UNL     1      12.179  12.574  20.135  0.00  0.00    -0.245 OA
HETATM   13  N   UNL     1      10.426  12.771  21.719  0.00  0.00    -0.244 N 
BRANCH  13  14
HETATM   14  C   UNL     1      10.583  14.116  22.112  0.00  0.00     0.051 A 
HETATM   15  C   UNL     1      11.472  14.443  23.148  0.00  0.00     0.031 A 
HETATM   16  C   UNL     1      11.538  15.746  23.655  0.00  0.00     0.002 A 
HETATM   17  C   UNL     1      10.696  16.728  23.148  0.00  0.00     0.001 A 
HETATM   18  C   UNL     1       9.857  16.436  22.078  0.00  0.00     0.009 A 
HETATM   19  C   UNL     1       9.815  15.144  21.522  0.00  0.00    -0.035 A 
HETATM   20  C   UNL     1       8.955  14.946  20.301  0.00  0.00     0.050 C 
ENDBRANCH  13  14
ENDBRANCH   3   7
BRANCH   4  21
HETATM   21  O   UNL     1       9.959  10.108  24.616  0.00  0.00    -0.360 OA
HETATM   22  H   UNL     1       9.500   9.259  24.804  0.00  0.00     0.217 HD
ENDBRANCH   4  21
BRANCH   1  23
HETATM   23  C   UNL     1       5.737  13.891  24.574  0.00  0.00     0.256 C 
HETATM   24  N   UNL     1       4.731  13.773  23.597  0.00  0.00    -0.348 N 
HETATM   25  C   UNL     1       4.593  12.670  22.661  0.00  0.00     0.153 C 
HETATM   26  O   UNL     1       5.737  14.817  25.392  0.00  0.00    -0.267 OA
BRANCH  24  27
HETATM   27  C   UNL     1       3.577  14.669  23.664  0.00  0.00     0.164 C 
BRANCH  27  28
HETATM   28  C   UNL     1       2.299  14.051  24.199  0.00  0.00    -0.040 A 
HETATM   29  C   UNL     1       1.879  14.238  25.527  0.00  0.00     0.009 A 
HETATM   30  C   UNL     1       0.592  13.861  25.924  0.00  0.00     0.001 A 
HETATM   31  C   UNL     1      -0.301  13.327  24.993  0.00  0.00     0.007 A 
HETATM   32  C   UNL     1       0.110  13.114  23.674  0.00  0.00    -0.061 A 
HETATM   33  C   UNL     1      -0.867  12.727  22.603  0.00  0.00     0.048 C 
HETATM   34  C   UNL     1       1.426  13.422  23.304  0.00  0.00     0.015 A 
ENDBRANCH  27  28
ENDBRANCH  24  27
ENDBRANCH   1  23
BRANCH   6  35
HETATM   35  O   UNL     1       6.942  12.730  27.049  0.00  0.00    -0.360 OA
HETATM   36  H   UNL     1       7.634  12.541  27.706  0.00  0.00     0.217 HD
ENDBRANCH   6  35
TORSDOF 7
ENDMDL
MODEL 3
REMARK VINA RESULT:    -8.874      2.508      7.358
REMARK INTER + INTRA:         -13.680
REMARK INTER:                 -11.380
REMARK INTRA:                  -2.300
REMARK UNBOUND:                -1.694
REMARK  7 active torsions:
REMARK  status: ('A' for Active; 'I' for Inactive)
REMARK    1  A    between atoms: C_6  and  C_7 
REMARK    2  A    between atoms: C_7  and  N_8 
REMARK       I    between atoms: N_8  and  C_10 
REMARK    3  A    between atoms: C_10  and  C_12 
REMARK    4  A    between atoms: C_14  and  C_15 
REMARK    5  A    between atoms: N_21  and  C_22 
REMARK    6  A    between atoms: C_29  and  O_30 
REMARK    7  A    between atoms: C_32  and  O_33 
ROOT
HETATM    1  C   UNL     1       2.748   9.389  24.481  0.00  0.00     0.066 C 
HETATM    2  C   UNL     1       1.801   9.797  25.451  0.00  0.00     0.038 C 
HETATM    3  C   UNL     1       0.607   9.077  25.645  0.00  0.00     0.046 C 
HETATM    4  C   UNL     1       0.444   7.861  24.969  0.00  0.00     0.082 C 
HETATM    5  C   UNL     1       1.323   7.490  23.963  0.00  0.00     0.075 C 
HETATM    6  C   UNL     1       2.411   8.306  23.658  0.00  0.00     0.084 C 
ENDROOT
BRANCH   3   7
HETATM    7  C   UNL     1      -0.513   9.538  26.510  0.00  0.00     0.172 A 
HETATM    8  N   UNL     1      -0.800   8.884  27.609  0.00  0.00    -0.151 NA
HETATM    9  N   UNL     1      -1.885   9.532  28.112  0.00  0.00    -0.226 N 
HETATM   10  H   UNL     1      -2.412   9.191  28.904  0.00  0.00     0.194 HD
HETATM   11  C   UNL     1      -2.310  10.553  27.251  0.00  0.00     0.349 A 
HETATM   12  O   UNL     1      -3.354  11.155  27.391  0.00  0.00    -0.245 OA
HETATM   13  N   UNL     1      -1.355  10.594  26.246  0.00  0.00    -0.244 N 
BRANCH  13  14
HETATM   14  C   UNL     1      -1.473  11.410  25.104  0.00  0.00     0.051 A 
HETATM   15  C   UNL     1      -2.356  11.049  24.073  0.00  0.00     0.031 A 
HETATM   16  C   UNL     1      -2.384  11.760  22.868  0.00  0.00     0.002 A 
HETATM   17  C   UNL     1      -1.512  12.824  22.673  0.00  0.00     0.001 A 
HETATM   18  C   UNL     1      -0.679  13.235  23.708  0.00  0.00     0.009 A 
HETATM   19  C   UNL     1      -0.673  12.563  24.944  0.00  0.00    -0.035 A 
HETATM   20  C   UNL     1       0.185  13.142  26.039  0.00  0.00     0.050 C 
ENDBRANCH  13  14
ENDBRANCH   3   7
BRANCH   4  21
HETATM   21  O   UNL     1      -0.590   6.994  25.198  0.00  0.00    -0.360 OA
HETATM   22  H   UNL     1      -0.242   6.228  25.709  0.00  0.00     0.217 HD
ENDBRANCH   4  21
BRANCH   1  23
HETATM   23  C   UNL     1       4.000  10.211  24.346  0.00  0.00     0.256 C 
HETATM   24  N   UNL     1       4.055  11.382  23.565  0.00  0.00    -0.348 N 
HETATM   25  C   UNL     1       2.914  12.033  22.944  0.00  0.00     0.153 C 
HETATM   26  O   UNL     1       5.002   9.766  24.914  0.00  0.00    -0.267 OA
BRANCH  24  27
HETATM   27  C   UNL     1       5.286  12.171  23.569  0.00  0.00     0.164 C 
BRANCH  27  28
HETATM   28  C   UNL     1       5.123  13.636  23.927  0.00  0.00    -0.040 A 
HETATM   29  C   UNL     1       5.460  14.666  23.033  0.00  0.00     0.009 A 
HETATM   30  C   UNL     1       5.080  15.987  23.295  0.00  0.00     0.001 A 
HETATM   31  C   UNL     1       4.330  16.288  24.433  0.00  0.00     0.007 A 
HETATM   32  C   UNL     1       4.007  15.277  25.344  0.00  0.00    -0.061 A 
HETATM   33  C   UNL     1       3.046  15.518  26.471  0.00  0.00     0.048 C 
HETATM   34  C   UNL     1       4.459  13.971  25.114  0.00  0.00     0.015 A 
ENDBRANCH  27  28
ENDBRANCH  24  27
ENDBRANCH   1  23
BRANCH   6  35
HETATM   35  O   UNL     1       3.083   8.052  22.497  0.00  0.00    -0.360 OA
HETATM   36  H   UNL     1       2.693   7.273  22.064  0.00  0.00     0.217 HD
ENDBRANCH   6  35
TORSDOF 7
ENDMDL
MODEL 4
REMARK VINA RESULT:    -8.847      3.101      5.099
REMARK INTER + INTRA:         -13.644
REMARK INTER:                 -11.843
REMARK INTRA:                  -1.801
REMARK UNBOUND:                -1.694
REMARK  7 active torsions:
REMARK  status: ('A' for Active; 'I' for Inactive)
REMARK    1  A    between atoms: C_6  and  C_7 
REMARK    2  A    between atoms: C_7  and  N_8 
REMARK       I    between atoms: N_8  and  C_10 
REMARK    3  A    between atoms: C_10  and  C_12 
REMARK    4  A    between atoms: C_14  and  C_15 
REMARK    5  A    between atoms: N_21  and  C_22 
REMARK    6  A    between atoms: C_29  and  O_30 
REMARK    7  A    between atoms: C_32  and  O_33 
ROOT
HETATM    1  C   UNL     1       7.923  10.657  23.841  0.00  0.00     0.066 C 
HETATM    2  C   UNL     1       8.601  11.453  24.796  0.00  0.00     0.038 C 
HETATM    3  C   UNL     1       9.998  11.376  24.942  0.00  0.00     0.046 C 
HETATM    4  C   UNL     1      10.724  10.611  24.020  0.00  0.00     0.082 C 
HETATM    5  C   UNL     1      10.071   9.769  23.133  0.00  0.00     0.075 C 
HETATM    6  C   UNL     1       8.678   9.724  23.119  0.00  0.00     0.084 C 
ENDROOT
BRANCH   3   7
HETATM    7  C   UNL     1      10.760  12.039  26.035  0.00  0.00     0.172 A 
HETATM    8  N   UNL     1      10.996  11.394  27.151  0.00  0.00    -0.151 NA
HETATM    9  N   UNL     1      11.652  12.297  27.929  0.00  0.00    -0.226 N 
HETATM   10  H   UNL     1      11.870  12.130  28.902  0.00  0.00     0.194 HD
HETATM   11  C   UNL     1      11.743  13.542  27.293  0.00  0.00     0.349 A 
HETATM   12  O   UNL     1      12.126  14.550  27.849  0.00  0.00    -0.245 OA
HETATM   13  N   UNL     1      11.224  13.334  26.024  0.00  0.00    -0.244 N 
BRANCH  13  14
HETATM   14  C   UNL     1      11.020  14.375  25.096  0.00  0.00     0.051 A 
HETATM   15  C   UNL     1      11.994  14.645  24.121  0.00  0.00     0.031 A 
HETATM   16  C   UNL     1      11.884  15.761  23.284  0.00  0.00     0.002 A 
HETATM   17  C   UNL     1      10.812  16.631  23.430  0.00  0.00     0.001 A 
HETATM   18  C   UNL     1       9.805  16.342  24.345  0.00  0.00     0.009 A 
HETATM   19  C   UNL     1       9.873  15.197  25.160  0.00  0.00    -0.035 A 
HETATM   20  C   UNL     1       8.689  14.910  26.046  0.00  0.00     0.050 C 
ENDBRANCH  13  14
ENDBRANCH   3   7
BRANCH   4  21
HETATM   21  O   UNL     1      12.091  10.589  23.955  0.00  0.00    -0.360 OA
HETATM   22  H   UNL     1      12.426  11.476  24.218  0.00  0.00     0.217 HD
ENDBRANCH   4  21
BRANCH   1  23
HETATM   23  C   UNL     1       6.430  10.810  23.747  0.00  0.00     0.256 C 
HETATM   24  N   UNL     1       5.790  11.283  22.585  0.00  0.00    -0.348 N 
HETATM   25  C   UNL     1       6.438  11.518  21.305  0.00  0.00     0.153 C 
HETATM   26  O   UNL     1       5.794  10.552  24.774  0.00  0.00    -0.267 OA
BRANCH  24  27
HETATM   27  C   UNL     1       4.329  11.307  22.548  0.00  0.00     0.164 C 
BRANCH  27  28
HETATM   28  C   UNL     1       3.687  12.632  22.912  0.00  0.00    -0.040 A 
HETATM   29  C   UNL     1       2.350  12.724  23.334  0.00  0.00     0.009 A 
HETATM   30  C   UNL     1       1.859  13.912  23.886  0.00  0.00     0.001 A 
HETATM   31  C   UNL     1       2.705  15.009  24.055  0.00  0.00     0.007 A 
HETATM   32  C   UNL     1       4.032  14.940  23.619  0.00  0.00    -0.061 A 
HETATM   33  C   UNL     1       5.022  16.018  23.953  0.00  0.00     0.048 C 
HETATM   34  C   UNL     1       4.494  13.774  22.995  0.00  0.00     0.015 A 
ENDBRANCH  27  28
ENDBRANCH  24  27
ENDBRANCH   1  23
BRANCH   6  35
HETATM   35  O   UNL     1       8.088   8.697  22.439  0.00  0.00    -0.360 OA
HETATM   36  H   UNL     1       8.181   8.850  21.483  0.00  0.00     0.217 HD
ENDBRANCH   6  35
TORSDOF 7
ENDMDL
MODEL 5
REMARK VINA RESULT:    -8.845      3.146      4.993
REMARK INTER + INTRA:         -13.641
REMARK INTER:                 -11.327
REMARK INTRA:                  -2.314
REMARK UNBOUND:                -1.694
REMARK  7 active torsions:
REMARK  status: ('A' for Active; 'I' for Inactive)
REMARK    1  A    between atoms: C_6  and  C_7 
REMARK    2  A    between atoms: C_7  and  N_8 
REMARK       I    between atoms: N_8  and  C_10 
REMARK    3  A    between atoms: C_10  and  C_12 
REMARK    4  A    between atoms: C_14  and  C_15 
REMARK    5  A    between atoms: N_21  and  C_22 
REMARK    6  A    between atoms: C_29  and  O_30 
REMARK    7  A    between atoms: C_32  and  O_33 
ROOT
HETATM    1  C   UNL     1       7.591  10.651  24.125  0.00  0.00     0.066 C 
HETATM    2  C   UNL     1       8.429  11.789  24.039  0.00  0.00     0.038 C 
HETATM    3  C   UNL     1       9.818  11.683  24.244  0.00  0.00     0.046 C 
HETATM    4  C   UNL     1      10.376  10.406  24.383  0.00  0.00     0.082 C 
HETATM    5  C   UNL     1       9.563   9.295  24.547  0.00  0.00     0.075 C 
HETATM    6  C   UNL     1       8.177   9.440  24.518  0.00  0.00     0.084 C 
ENDROOT
BRANCH   3   7
HETATM    7  C   UNL     1      10.736  12.849  24.348  0.00  0.00     0.172 A 
HETATM    8  N   UNL     1      11.542  12.955  25.377  0.00  0.00    -0.151 NA
HETATM    9  N   UNL     1      12.183  14.139  25.181  0.00  0.00    -0.226 N 
HETATM   10  H   UNL     1      12.793  14.557  25.871  0.00  0.00     0.194 HD
HETATM   11  C   UNL     1      11.693  14.799  24.046  0.00  0.00     0.349 A 
HETATM   12  O   UNL     1      11.979  15.943  23.761  0.00  0.00    -0.245 OA
HETATM   13  N   UNL     1      10.802  13.906  23.470  0.00  0.00    -0.244 N 
BRANCH  13  14
HETATM   14  C   UNL     1       9.992  14.231  22.363  0.00  0.00     0.051 A 
HETATM   15  C   UNL     1       8.815  14.974  22.551  0.00  0.00     0.031 A 
HETATM   16  C   UNL     1       7.921  15.184  21.496  0.00  0.00     0.002 A 
HETATM   17  C   UNL     1       8.182  14.632  20.248  0.00  0.00     0.001 A 
HETATM   18  C   UNL     1       9.375  13.950  20.029  0.00  0.00     0.009 A 
HETATM   19  C   UNL     1      10.309  13.773  21.066  0.00  0.00    -0.035 A 
HETATM   20  C   UNL     1      11.617  13.114  20.710  0.00  0.00     0.050 C 
ENDBRANCH  13  14
ENDBRANCH   3   7
BRANCH   4  21
HETATM   21  O   UNL     1      11.722  10.162  24.422  0.00  0.00    -0.360 OA
HETATM   22  H   UNL     1      11.997   9.808  23.546  0.00  0.00     0.217 HD
ENDBRANCH   4  21
BRANCH   1  23
HETATM   23  C   UNL     1       6.121  10.853  23.883  0.00  0.00     0.256 C 
HETATM   24  N   UNL     1       5.610  11.269  22.639  0.00  0.00    -0.348 N 
HETATM   25  C   UNL     1       6.379  11.390  21.412  0.00  0.00     0.153 C 
HETATM   26  O   UNL     1       5.385  10.692  24.862  0.00  0.00    -0.267 OA
BRANCH  24  27
HETATM   27  C   UNL     1       4.160  11.346  22.465  0.00  0.00     0.164 C 
BRANCH  27  28
HETATM   28  C   UNL     1       3.523  12.666  22.857  0.00  0.00    -0.040 A 
HETATM   29  C   UNL     1       2.188  12.753  23.286  0.00  0.00     0.009 A 
HETATM   30  C   UNL     1       1.703  13.931  23.864  0.00  0.00     0.001 A 
HETATM   31  C   UNL     1       2.553  15.022  24.051  0.00  0.00     0.007 A 
HETATM   32  C   UNL     1       3.878  14.958  23.609  0.00  0.00    -0.061 A 
HETATM   33  C   UNL     1       4.872  16.026  23.961  0.00  0.00     0.048 C 
HETATM   34  C   UNL     1       4.334  13.803  22.961  0.00  0.00     0.015 A 
ENDBRANCH  27  28
ENDBRANCH  24  27
ENDBRANCH   1  23
BRANCH   6  35
HETATM   35  O   UNL     1       7.425   8.387  24.953  0.00  0.00    -0.360 OA
HETATM   36  H   UNL     1       6.922   8.655  25.741  0.00  0.00     0.217 HD
ENDBRANCH   6  35
TORSDOF 7
ENDMDL
MODEL 6
REMARK VINA RESULT:    -8.814      2.890      5.382
REMARK INTER + INTRA:         -13.599
REMARK INTER:                 -11.692
REMARK INTRA:                  -1.907
REMARK UNBOUND:                -1.694
REMARK  7 active torsions:
REMARK  status: ('A' for Active; 'I' for Inactive)
REMARK    1  A    between atoms: C_6  and  C_7 
REMARK    2  A    between atoms: C_7  and  N_8 
REMARK       I    between atoms: N_8  and  C_10 
REMARK    3  A    between atoms: C_10  and  C_12 
REMARK    4  A    between atoms: C_14  and  C_15 
REMARK    5  A    between atoms: N_21  and  C_22 
REMARK    6  A    between atoms: C_29  and  O_30 
REMARK    7  A    between atoms: C_32  and  O_33 
ROOT
HETATM    1  C   UNL     1       5.750  14.742  24.924  0.00  0.00     0.066 C 
HETATM    2  C   UNL     1       6.099  14.535  23.568  0.00  0.00     0.038 C 
HETATM    3  C   UNL     1       7.436  14.314  23.190  0.00  0.00     0.046 C 
HETATM    4  C   UNL     1       8.395  14.149  24.197  0.00  0.00     0.082 C 
HETATM    5  C   UNL     1       8.084  14.425  25.519  0.00  0.00     0.075 C 
HETATM    6  C   UNL     1       6.791  14.817  25.859  0.00  0.00     0.084 C 
ENDROOT
BRANCH   3   7
HETATM    7  C   UNL     1       7.907  14.267  21.778  0.00  0.00     0.172 A 
HETATM    8  N   UNL     1       8.111  15.383  21.122  0.00  0.00    -0.151 NA
HETATM    9  N   UNL     1       8.475  14.977  19.875  0.00  0.00    -0.226 N 
HETATM   10  H   UNL     1       8.590  15.615  19.100  0.00  0.00     0.194 HD
HETATM   11  C   UNL     1       8.410  13.582  19.757  0.00  0.00     0.349 A 
HETATM   12  O   UNL     1       8.517  12.994  18.701  0.00  0.00    -0.245 OA
HETATM   13  N   UNL     1       8.112  13.129  21.033  0.00  0.00    -0.244 N 
BRANCH  13  14
HETATM   14  C   UNL     1       7.838  11.778  21.327  0.00  0.00     0.051 A 
HETATM   15  C   UNL     1       6.526  11.290  21.218  0.00  0.00     0.031 A 
HETATM   16  C   UNL     1       6.202   9.997  21.642  0.00  0.00     0.002 A 
HETATM   17  C   UNL     1       7.181   9.187  22.204  0.00  0.00     0.001 A 
HETATM   18  C   UNL     1       8.499   9.632  22.258  0.00  0.00     0.009 A 
HETATM   19  C   UNL     1       8.852  10.910  21.789  0.00  0.00    -0.035 A 
HETATM   20  C   UNL     1      10.316  11.265  21.793  0.00  0.00     0.050 C 
ENDBRANCH  13  14
ENDBRANCH   3   7
BRANCH   4  21
HETATM   21  O   UNL     1       9.689  13.767  23.963  0.00  0.00    -0.360 OA
HETATM   22  H   UNL     1      10.234  14.035  24.737  0.00  0.00     0.217 HD
ENDBRANCH   4  21
BRANCH   1  23
HETATM   23  C   UNL     1       4.297  14.962  25.240  0.00  0.00     0.256 C 
HETATM   24  N   UNL     1       3.397  13.898  25.443  0.00  0.00    -0.348 N 
HETATM   25  C   UNL     1       3.763  12.496  25.544  0.00  0.00     0.153 C 
HETATM   26  O   UNL     1       3.919  16.138  25.252  0.00  0.00    -0.267 OA
BRANCH  24  27
HETATM   27  C   UNL     1       2.024  14.205  25.841  0.00  0.00     0.164 C 
BRANCH  27  28
HETATM   28  C   UNL     1       0.949  13.801  24.849  0.00  0.00    -0.040 A 
HETATM   29  C   UNL     1       1.140  13.898  23.460  0.00  0.00     0.009 A 
HETATM   30  C   UNL     1       0.235  13.302  22.576  0.00  0.00     0.001 A 
HETATM   31  C   UNL     1      -0.850  12.573  23.068  0.00  0.00     0.007 A 
HETATM   32  C   UNL     1      -1.065  12.487  24.447  0.00  0.00    -0.061 A 
HETATM   33  C   UNL     1      -2.098  11.562  25.020  0.00  0.00     0.048 C 
HETATM   34  C   UNL     1      -0.198  13.153  25.323  0.00  0.00     0.015 A 
ENDBRANCH  27  28
ENDBRANCH  24  27
ENDBRANCH   1  23
BRANCH   6  35
HETATM   35  O   UNL     1       6.599  15.340  27.106  0.00  0.00    -0.360 OA
HETATM   36  H   UNL     1       6.140  14.687  27.661  0.00  0.00     0.217 HD
ENDBRANCH   6  35
TORSDOF 7
ENDMDL
MODEL 7
REMARK VINA RESULT:    -8.735      2.441      3.804
REMARK INTER + INTRA:         -13.493
REMARK INTER:                 -11.599
REMARK INTRA:                  -1.895
REMARK UNBOUND:                -1.694
REMARK  7 active torsions:
REMARK  status: ('A' for Active; 'I' for Inactive)
REMARK    1  A    between atoms: C_6  and  C_7 
REMARK    2  A    between atoms: C_7  and  N_8 
REMARK       I    between atoms: N_8  and  C_10 
REMARK    3  A    between atoms: C_10  and  C_12 
REMARK    4  A    between atoms: C_14  and  C_15 
REMARK    5  A    between atoms: N_21  and  C_22 
REMARK    6  A    between atoms: C_29  and  O_30 
REMARK    7  A    between atoms: C_32  and  O_33 
ROOT
HETATM    1  C   UNL     1       5.466  12.360  22.918  0.00  0.00     0.066 C 
HETATM    2  C   UNL     1       6.658  12.342  23.681  0.00  0.00     0.038 C 
HETATM    3  C   UNL     1       7.778  11.602  23.257  0.00  0.00     0.046 C 
HETATM    4  C   UNL     1       7.744  11.009  21.989  0.00  0.00     0.082 C 
HETATM    5  C   UNL     1       6.562  10.953  21.267  0.00  0.00     0.075 C 
HETATM    6  C   UNL     1       5.408  11.541  21.782  0.00  0.00     0.084 C 
ENDROOT
BRANCH   3   7
HETATM    7  C   UNL     1       8.996  11.387  24.084  0.00  0.00     0.172 A 
HETATM    8  N   UNL     1       9.156  10.258  24.730  0.00  0.00    -0.151 NA
HETATM    9  N   UNL     1      10.322  10.421  25.410  0.00  0.00    -0.226 N 
HETATM   10  H   UNL     1      10.659   9.757  26.094  0.00  0.00     0.194 HD
HETATM   11  C   UNL     1      10.837  11.712  25.231  0.00  0.00     0.349 A 
HETATM   12  O   UNL     1      11.769  12.155  25.869  0.00  0.00    -0.245 OA
HETATM   13  N   UNL     1       9.998  12.305  24.299  0.00  0.00    -0.244 N 
BRANCH  13  14
HETATM   14  C   UNL     1      10.096  13.661  23.928  0.00  0.00     0.051 A 
HETATM   15  C   UNL     1      10.723  14.013  22.721  0.00  0.00     0.031 A 
HETATM   16  C   UNL     1      10.962  15.353  22.400  0.00  0.00     0.002 A 
HETATM   17  C   UNL     1      10.600  16.354  23.293  0.00  0.00     0.001 A 
HETATM   18  C   UNL     1       9.920  16.026  24.461  0.00  0.00     0.009 A 
HETATM   19  C   UNL     1       9.626  14.687  24.777  0.00  0.00    -0.035 A 
HETATM   20  C   UNL     1       8.796  14.436  26.009  0.00  0.00     0.050 C 
ENDBRANCH  13  14
ENDBRANCH   3   7
BRANCH   4  21
HETATM   21  O   UNL     1       8.824  10.409  21.399  0.00  0.00    -0.360 OA
HETATM   22  H   UNL     1       8.493   9.780  20.719  0.00  0.00     0.217 HD
ENDBRANCH   4  21
BRANCH   1  23
HETATM   23  C   UNL     1       4.321  13.183  23.440  0.00  0.00     0.256 C 
HETATM   24  N   UNL     1       3.273  12.626  24.198  0.00  0.00    -0.348 N 
HETATM   25  C   UNL     1       3.237  11.267  24.711  0.00  0.00     0.153 C 
HETATM   26  O   UNL     1       4.318  14.374  23.113  0.00  0.00    -0.267 OA
BRANCH  24  27
HETATM   27  C   UNL     1       2.251  13.517  24.746  0.00  0.00     0.164 C 
BRANCH  27  28
HETATM   28  C   UNL     1       0.834  13.258  24.272  0.00  0.00    -0.040 A 
HETATM   29  C   UNL     1       0.492  13.252  22.909  0.00  0.00     0.009 A 
HETATM   30  C   UNL     1      -0.758  12.780  22.493  0.00  0.00     0.001 A 
HETATM   31  C   UNL     1      -1.664  12.276  23.428  0.00  0.00     0.007 A 
HETATM   32  C   UNL     1      -1.346  12.296  24.789  0.00  0.00    -0.061 A 
HETATM   33  C   UNL     1      -2.202  11.593  25.802  0.00  0.00     0.048 C 
HETATM   34  C   UNL     1      -0.125  12.843  25.204  0.00  0.00     0.015 A 
ENDBRANCH  27  28
ENDBRANCH  24  27
ENDBRANCH   1  23
BRANCH   6  35
HETATM   35  O   UNL     1       4.221  11.228  21.183  0.00  0.00    -0.360 OA
HETATM   36  H   UNL     1       4.348  10.459  20.601  0.00  0.00     0.217 HD
ENDBRANCH   6  35
TORSDOF 7
ENDMDL
MODEL 8
REMARK VINA RESULT:    -8.718      3.020      4.780
REMARK INTER + INTRA:         -13.470
REMARK INTER:                 -11.776
REMARK INTRA:                  -1.694
REMARK UNBOUND:                -1.694
REMARK  7 active torsions:
REMARK  status: ('A' for Active; 'I' for Inactive)
REMARK    1  A    between atoms: C_6  and  C_7 
REMARK    2  A    between atoms: C_7  and  N_8 
REMARK       I    between atoms: N_8  and  C_10 
REMARK    3  A    between atoms: C_10  and  C_12 
REMARK    4  A    between atoms: C_14  and  C_15 
REMARK    5  A    between atoms: N_21  and  C_22 
REMARK    6  A    between atoms: C_29  and  O_30 
REMARK    7  A    between atoms: C_32  and  O_33 
ROOT
HETATM    1  C   UNL     1       5.800  12.320  22.511  0.00  0.00     0.066 C 
HETATM    2  C   UNL     1       6.973  12.342  23.303  0.00  0.00     0.038 C 
HETATM    3  C   UNL     1       8.091  11.557  22.965  0.00  0.00     0.046 C 
HETATM    4  C   UNL     1       8.079  10.870  21.744  0.00  0.00     0.082 C 
HETATM    5  C   UNL     1       6.914  10.776  20.999  0.00  0.00     0.075 C 
HETATM    6  C   UNL     1       5.757  11.418  21.439  0.00  0.00     0.084 C 
ENDROOT
BRANCH   3   7
HETATM    7  C   UNL     1       9.285  11.387  23.837  0.00  0.00     0.172 A 
HETATM    8  N   UNL     1       9.486  10.248  24.453  0.00  0.00    -0.151 NA
HETATM    9  N   UNL     1      10.612  10.458  25.188  0.00  0.00    -0.226 N 
HETATM   10  H   UNL     1      10.960   9.793  25.865  0.00  0.00     0.194 HD
HETATM   11  C   UNL     1      11.054  11.783  25.071  0.00  0.00     0.349 A 
HETATM   12  O   UNL     1      11.930  12.259  25.762  0.00  0.00    -0.245 OA
HETATM   13  N   UNL     1      10.220  12.356  24.123  0.00  0.00    -0.244 N 
BRANCH  13  14
HETATM   14  C   UNL     1      10.249  13.727  23.798  0.00  0.00     0.051 A 
HETATM   15  C   UNL     1      10.886  14.154  22.621  0.00  0.00     0.031 A 
HETATM   16  C   UNL     1      11.057  15.516  22.350  0.00  0.00     0.002 A 
HETATM   17  C   UNL     1      10.616  16.464  23.264  0.00  0.00     0.001 A 
HETATM   18  C   UNL     1       9.926  16.059  24.402  0.00  0.00     0.009 A 
HETATM   19  C   UNL     1       9.700  14.696  24.666  0.00  0.00    -0.035 A 
HETATM   20  C   UNL     1       8.855  14.357  25.866  0.00  0.00     0.050 C 
ENDBRANCH  13  14
ENDBRANCH   3   7
BRANCH   4  21
HETATM   21  O   UNL     1       9.162  10.211  21.229  0.00  0.00    -0.360 OA
HETATM   22  H   UNL     1       9.922  10.836  21.208  0.00  0.00     0.217 HD
ENDBRANCH   4  21
BRANCH   1  23
HETATM   23  C   UNL     1       4.657  13.196  22.940  0.00  0.00     0.256 C 
HETATM   24  N   UNL     1       4.837  14.537  23.331  0.00  0.00    -0.348 N 
HETATM   25  C   UNL     1       6.076  15.287  23.216  0.00  0.00     0.153 C 
HETATM   26  O   UNL     1       3.549  12.653  22.989  0.00  0.00    -0.267 OA
BRANCH  24  27
HETATM   27  C   UNL     1       3.657  15.344  23.640  0.00  0.00     0.164 C 
BRANCH  27  28
HETATM   28  C   UNL     1       3.181  15.282  25.079  0.00  0.00    -0.040 A 
HETATM   29  C   UNL     1       3.658  16.165  26.062  0.00  0.00     0.009 A 
HETATM   30  C   UNL     1       3.033  16.242  27.312  0.00  0.00     0.001 A 
HETATM   31  C   UNL     1       1.905  15.464  27.580  0.00  0.00     0.007 A 
HETATM   32  C   UNL     1       1.433  14.564  26.620  0.00  0.00    -0.061 A 
HETATM   33  C   UNL     1       0.121  13.856  26.791  0.00  0.00     0.048 C 
HETATM   34  C   UNL     1       2.112  14.437  25.401  0.00  0.00     0.015 A 
ENDBRANCH  27  28
ENDBRANCH  24  27
ENDBRANCH   1  23
BRANCH   6  35
HETATM   35  O   UNL     1       4.580  11.078  20.835  0.00  0.00    -0.360 OA
HETATM   36  H   UNL     1       3.920  10.863  21.516  0.00  0.00     0.217 HD
ENDBRANCH   6  35
TORSDOF 7
ENDMDL
MODEL 9
REMARK VINA RESULT:    -8.641      1.603      2.346
REMARK INTER + INTRA:         -13.366
REMARK INTER:                 -11.672
REMARK INTRA:                  -1.694
REMARK UNBOUND:                -1.694
REMARK  7 active torsions:
REMARK  status: ('A' for Active; 'I' for Inactive)
REMARK    1  A    between atoms: C_6  and  C_7 
REMARK    2  A    between atoms: C_7  and  N_8 
REMARK       I    between atoms: N_8  and  C_10 
REMARK    3  A    between atoms: C_10  and  C_12 
REMARK    4  A    between atoms: C_14  and  C_15 
REMARK    5  A    between atoms: N_21  and  C_22 
REMARK    6  A    between atoms: C_29  and  O_30 
REMARK    7  A    between atoms: C_32  and  O_33 
ROOT
HETATM    1  C   UNL     1       6.295  10.569  23.276  0.00  0.00     0.066 C 
HETATM    2  C   UNL     1       6.785  11.639  24.063  0.00  0.00     0.038 C 
HETATM    3  C   UNL     1       8.161  11.931  24.111  0.00  0.00     0.046 C 
HETATM    4  C   UNL     1       9.020  11.242  23.246  0.00  0.00     0.082 C 
HETATM    5  C   UNL     1       8.568  10.144  22.531  0.00  0.00     0.075 C 
HETATM    6  C   UNL     1       7.234   9.755  22.629  0.00  0.00     0.084 C 
ENDROOT
BRANCH   3   7
HETATM    7  C   UNL     1       8.772  12.915  25.046  0.00  0.00     0.172 A 
HETATM    8  N   UNL     1       9.842  12.589  25.729  0.00  0.00    -0.151 NA
HETATM    9  N   UNL     1      10.091  13.679  26.504  0.00  0.00    -0.226 N 
HETATM   10  H   UNL     1      10.794  13.690  27.230  0.00  0.00     0.194 HD
HETATM   11  C   UNL     1       9.098  14.655  26.340  0.00  0.00     0.349 A 
HETATM   12  O   UNL     1       9.003  15.637  27.046  0.00  0.00    -0.245 OA
HETATM   13  N   UNL     1       8.286  14.172  25.326  0.00  0.00    -0.244 N 
BRANCH  13  14
HETATM   14  C   UNL     1       7.088  14.801  24.932  0.00  0.00     0.051 A 
HETATM   15  C   UNL     1       6.038  14.948  25.853  0.00  0.00     0.031 A 
HETATM   16  C   UNL     1       4.790  15.434  25.450  0.00  0.00     0.002 A 
HETATM   17  C   UNL     1       4.571  15.756  24.117  0.00  0.00     0.001 A 
HETATM   18  C   UNL     1       5.619  15.679  23.205  0.00  0.00     0.009 A 
HETATM   19  C   UNL     1       6.895  15.240  23.603  0.00  0.00    -0.035 A 
HETATM   20  C   UNL     1       7.993  15.288  22.573  0.00  0.00     0.050 C 
ENDBRANCH  13  14
ENDBRANCH   3   7
BRANCH   4  21
HETATM   21  O   UNL     1      10.344  11.548  23.082  0.00  0.00    -0.360 OA
HETATM   22  H   UNL     1      10.678  11.059  22.297  0.00  0.00     0.217 HD
ENDBRANCH   4  21
BRANCH   1  23
HETATM   23  C   UNL     1       4.810  10.333  23.275  0.00  0.00     0.256 C 
HETATM   24  N   UNL     1       4.035  10.388  24.449  0.00  0.00    -0.348 N 
HETATM   25  C   UNL     1       4.508  10.834  25.749  0.00  0.00     0.153 C 
HETATM   26  O   UNL     1       4.313  10.025  22.187  0.00  0.00    -0.267 OA
BRANCH  24  27
HETATM   27  C   UNL     1       2.584  10.242  24.341  0.00  0.00     0.164 C 
BRANCH  27  28
HETATM   28  C   UNL     1       1.793  11.536  24.352  0.00  0.00    -0.040 A 
HETATM   29  C   UNL     1       2.327  12.742  23.867  0.00  0.00     0.009 A 
HETATM   30  C   UNL     1       1.503  13.855  23.669  0.00  0.00     0.001 A 
HETATM   31  C   UNL     1       0.132  13.766  23.920  0.00  0.00     0.007 A 
HETATM   32  C   UNL     1      -0.410  12.580  24.424  0.00  0.00    -0.061 A 
HETATM   33  C   UNL     1      -1.893  12.378  24.524  0.00  0.00     0.048 C 
HETATM   34  C   UNL     1       0.435  11.495  24.693  0.00  0.00     0.015 A 
ENDBRANCH  27  28
ENDBRANCH  24  27
ENDBRANCH   1  23
BRANCH   6  35
HETATM   35  O   UNL     1       6.898   8.526  22.136  0.00  0.00    -0.360 OA
HETATM   36  H   UNL     1       5.942   8.500  21.961  0.00  0.00     0.217 HD
ENDBRANCH   6  35
TORSDOF 7
ENDMDL
