MODEL 1
REMARK VINA RESULT:    -9.210      0.000      0.000
REMARK INTER + INTRA:         -12.279
REMARK INTER:                 -10.923
REMARK INTRA:                  -1.356
REMARK UNBOUND:                -0.646
REMARK  5 active torsions:
REMARK  status: ('A' for Active; 'I' for Inactive)
REMARK    1  A    between atoms: N_10  and  C_14 
REMARK    2  A    between atoms: C_17  and  C_18 
REMARK       I    between atoms: C_18  and  N_20 
REMARK    3  A    between atoms: C_22  and  N_23 
REMARK    4  A    between atoms: N_23  and  C_24 
REMARK    5  A    between atoms: C_27  and  O_28 
ROOT
HETATM    1  C   UNL     1       6.362  14.771  22.731  0.00  0.00     0.041 A 
HETATM    2  C   UNL     1       5.499  15.468  23.573  0.00  0.00     0.031 A 
HETATM    3  C   UNL     1       4.196  14.999  23.798  0.00  0.00     0.022 A 
HETATM    4  C   UNL     1       3.720  13.838  23.169  0.00  0.00     0.058 A 
HETATM    5  C   UNL     1       5.837  13.652  22.052  0.00  0.00     0.060 A 
HETATM    6  C   UNL     1       4.536  13.157  22.248  0.00  0.00     0.046 A 
ENDROOT
BRANCH   1   7
HETATM    7  N   UNL     1       7.751  15.114  22.541  0.00  0.00    -0.324 N 
HETATM    8  C   UNL     1       8.909  14.394  22.841  0.00  0.00     0.031 A 
HETATM    9  C   UNL     1       9.009  13.006  23.395  0.00  0.00     0.067 C 
HETATM   10  C   UNL     1      10.020  15.165  22.508  0.00  0.00     0.040 A 
HETATM   11  C   UNL     1      10.425  12.398  23.181  0.00  0.00    -0.036 C 
HETATM   12  C   UNL     1      11.524  13.424  23.545  0.00  0.00     0.093 C 
HETATM   13  C   UNL     1      10.592  11.935  21.717  0.00  0.00     0.015 C 
HETATM   14  C   UNL     1      10.571  11.165  24.090  0.00  0.00     0.015 C 
HETATM   15  C   UNL     1      11.385  14.714  22.754  0.00  0.00     0.162 C 
HETATM   16  O   UNL     1      12.371  15.355  22.396  0.00  0.00    -0.292 OA
HETATM   17  C   UNL     1       9.562  16.335  21.868  0.00  0.00    -0.030 A 
HETATM   18  C   UNL     1       8.188  16.277  21.917  0.00  0.00     0.105 A 
HETATM   19  C   UNL     1      10.381  17.409  21.247  0.00  0.00     0.050 C 
ENDBRANCH   1   7
BRANCH   6  20
HETATM   20  N   UNL     1       4.131  11.994  21.605  0.00  0.00    -0.384 N 
HETATM   21  H   UNL     1       3.189  11.661  21.808  0.00  0.00     0.160 HD
BRANCH  20  22
HETATM   22  C   UNL     1       4.952  11.255  20.654  0.00  0.00     0.082 C 
HETATM   23  C   UNL     1       4.473  11.481  19.215  0.00  0.00     0.027 C 
HETATM   24  C   UNL     1       5.268  10.624  18.233  0.00  0.00     0.034 C 
HETATM   25  C   UNL     1       5.169   9.144  18.595  0.00  0.00     0.118 C 
HETATM   26  C   UNL     1       5.640   8.892  20.025  0.00  0.00     0.034 C 
HETATM   27  C   UNL     1       4.887   9.763  21.024  0.00  0.00     0.027 C 
BRANCH  25  28
HETATM   28  O   UNL     1       5.943   8.369  17.690  0.00  0.00    -0.396 OA
HETATM   29  H   UNL     1       5.671   8.588  16.782  0.00  0.00     0.210 HD
ENDBRANCH  25  28
ENDBRANCH  20  22
ENDBRANCH   6  20
BRANCH   4  30
HETATM   30  C   UNL     1       2.361  13.374  23.573  0.00  0.00     0.251 C 
HETATM   31  O   UNL     1       2.042  12.192  23.538  0.00  0.00    -0.268 OA
HETATM   32  N   UNL     1       1.450  14.334  23.923  0.00  0.00    -0.366 N 
HETATM   33  H   UNL     1       1.650  15.308  23.736  0.00  0.00     0.159 HD
HETATM   34  H   UNL     1       0.492  14.043  24.052  0.00  0.00     0.159 HD
ENDBRANCH   4  30
TORSDOF 5
ENDMDL
MODEL 2
REMARK VINA RESULT:    -9.054      1.364      1.817
REMARK INTER + INTRA:         -12.082
REMARK INTER:                 -10.707
REMARK INTRA:                  -1.375
REMARK UNBOUND:                -0.646
REMARK  5 active torsions:
REMARK  status: ('A' for Active; 'I' for Inactive)
REMARK    1  A    between atoms: N_10  and  C_14 
REMARK    2  A    between atoms: C_17  and  C_18 
REMARK       I    between atoms: C_18  and  N_20 
REMARK    3  A    between atoms: C_22  and  N_23 
REMARK    4  A    between atoms: N_23  and  C_24 
REMARK    5  A    between atoms: C_27  and  O_28 
ROOT
HETATM    1  C   UNL     1       6.340  15.036  22.855  0.00  0.00     0.041 A 
HETATM    2  C   UNL     1       5.562  15.948  23.564  0.00  0.00     0.031 A 
HETATM    3  C   UNL     1       4.212  15.675  23.827  0.00  0.00     0.022 A 
HETATM    4  C   UNL     1       3.603  14.496  23.367  0.00  0.00     0.058 A 
HETATM    5  C   UNL     1       5.688  13.898  22.338  0.00  0.00     0.060 A 
HETATM    6  C   UNL     1       4.336  13.594  22.577  0.00  0.00     0.046 A 
ENDROOT
BRANCH   1   7
HETATM    7  N   UNL     1       7.761  15.182  22.646  0.00  0.00    -0.324 N 
HETATM    8  C   UNL     1       8.810  14.308  22.935  0.00  0.00     0.031 A 
HETATM    9  C   UNL     1       8.722  12.920  23.491  0.00  0.00     0.067 C 
HETATM   10  C   UNL     1      10.013  14.915  22.586  0.00  0.00     0.040 A 
HETATM   11  C   UNL     1      10.036  12.119  23.262  0.00  0.00    -0.036 C 
HETATM   12  C   UNL     1      11.272  12.982  23.609  0.00  0.00     0.093 C 
HETATM   13  C   UNL     1      10.118  11.636  21.797  0.00  0.00     0.015 C 
HETATM   14  C   UNL     1      10.020  10.879  24.172  0.00  0.00     0.015 C 
HETATM   15  C   UNL     1      11.305  14.278  22.816  0.00  0.00     0.162 C 
HETATM   16  O   UNL     1      12.366  14.774  22.445  0.00  0.00    -0.292 OA
HETATM   17  C   UNL     1       9.716  16.136  21.948  0.00  0.00    -0.030 A 
HETATM   18  C   UNL     1       8.348  16.272  22.014  0.00  0.00     0.105 A 
HETATM   19  C   UNL     1      10.669  17.085  21.314  0.00  0.00     0.050 C 
ENDBRANCH   1   7
BRANCH   6  20
HETATM   20  N   UNL     1       3.798  12.403  22.105  0.00  0.00    -0.384 N 
HETATM   21  H   UNL     1       2.860  12.448  21.707  0.00  0.00     0.160 HD
BRANCH  20  22
HETATM   22  C   UNL     1       4.498  11.125  22.121  0.00  0.00     0.082 C 
HETATM   23  C   UNL     1       5.423  11.014  23.339  0.00  0.00     0.027 C 
HETATM   24  C   UNL     1       6.232   9.720  23.295  0.00  0.00     0.034 C 
HETATM   25  C   UNL     1       7.045   9.626  22.007  0.00  0.00     0.118 C 
HETATM   26  C   UNL     1       6.145   9.734  20.777  0.00  0.00     0.034 C 
HETATM   27  C   UNL     1       5.298  11.001  20.813  0.00  0.00     0.027 C 
BRANCH  25  28
HETATM   28  O   UNL     1       7.762   8.400  21.972  0.00  0.00    -0.396 OA
HETATM   29  H   UNL     1       8.618   8.529  22.414  0.00  0.00     0.210 HD
ENDBRANCH  25  28
ENDBRANCH  20  22
ENDBRANCH   6  20
BRANCH   4  30
HETATM   30  C   UNL     1       2.197  14.261  23.805  0.00  0.00     0.251 C 
HETATM   31  O   UNL     1       1.321  13.921  23.020  0.00  0.00    -0.268 OA
HETATM   32  N   UNL     1       1.901  14.508  25.119  0.00  0.00    -0.366 N 
HETATM   33  H   UNL     1       2.568  14.997  25.701  0.00  0.00     0.159 HD
HETATM   34  H   UNL     1       0.928  14.497  25.388  0.00  0.00     0.159 HD
ENDBRANCH   4  30
TORSDOF 5
ENDMDL
MODEL 3
REMARK VINA RESULT:    -8.734      2.407      3.211
REMARK INTER + INTRA:         -11.678
REMARK INTER:                 -10.668
REMARK INTRA:                  -1.010
REMARK UNBOUND:                -0.646
REMARK  5 active torsions:
REMARK  status: ('A' for Active; 'I' for Inactive)
REMARK    1  A    between atoms: N_10  and  C_14 
REMARK    2  A    between atoms: C_17  and  C_18 
REMARK       I    between atoms: C_18  and  N_20 
REMARK    3  A    between atoms: C_22  and  N_23 
REMARK    4  A    between atoms: N_23  and  C_24 
REMARK    5  A    between atoms: C_27  and  O_28 
ROOT
HETATM    1  C   UNL     1       6.365  14.331  22.675  0.00  0.00     0.041 A 
HETATM    2  C   UNL     1       5.944  15.503  23.298  0.00  0.00     0.031 A 
HETATM    3  C   UNL     1       4.614  15.642  23.722  0.00  0.00     0.022 A 
HETATM    4  C   UNL     1       3.671  14.624  23.510  0.00  0.00     0.058 A 
HETATM    5  C   UNL     1       5.383  13.355  22.404  0.00  0.00     0.060 A 
HETATM    6  C   UNL     1       4.040  13.463  22.809  0.00  0.00     0.046 A 
ENDROOT
BRANCH   1   7
HETATM    7  N   UNL     1       7.737  14.056  22.318  0.00  0.00    -0.324 N 
HETATM    8  C   UNL     1       8.922  14.359  22.990  0.00  0.00     0.031 A 
HETATM    9  C   UNL     1       9.077  15.007  24.331  0.00  0.00     0.067 C 
HETATM   10  C   UNL     1      10.000  13.923  22.223  0.00  0.00     0.040 A 
HETATM   11  C   UNL     1      10.497  14.778  24.924  0.00  0.00    -0.036 C 
HETATM   12  C   UNL     1      11.586  15.019  23.852  0.00  0.00     0.093 C 
HETATM   13  C   UNL     1      10.614  13.346  25.490  0.00  0.00     0.015 C 
HETATM   14  C   UNL     1      10.709  15.767  26.084  0.00  0.00     0.015 C 
HETATM   15  C   UNL     1      11.384  14.143  22.627  0.00  0.00     0.162 C 
HETATM   16  O   UNL     1      12.339  13.698  21.994  0.00  0.00    -0.292 OA
HETATM   17  C   UNL     1       9.489  13.220  21.114  0.00  0.00    -0.030 A 
HETATM   18  C   UNL     1       8.120  13.332  21.195  0.00  0.00     0.105 A 
HETATM   19  C   UNL     1      10.256  12.488  20.072  0.00  0.00     0.050 C 
ENDBRANCH   1   7
BRANCH   6  20
HETATM   20  N   UNL     1       3.160  12.413  22.581  0.00  0.00    -0.384 N 
HETATM   21  H   UNL     1       2.361  12.606  21.978  0.00  0.00     0.160 HD
BRANCH  20  22
HETATM   22  C   UNL     1       3.327  11.071  23.124  0.00  0.00     0.082 C 
HETATM   23  C   UNL     1       3.798  11.118  24.583  0.00  0.00     0.027 C 
HETATM   24  C   UNL     1       4.074   9.713  25.113  0.00  0.00     0.034 C 
HETATM   25  C   UNL     1       5.107   8.995  24.249  0.00  0.00     0.118 C 
HETATM   26  C   UNL     1       4.662   8.935  22.790  0.00  0.00     0.034 C 
HETATM   27  C   UNL     1       4.344  10.323  22.245  0.00  0.00     0.027 C 
BRANCH  25  28
HETATM   28  O   UNL     1       5.323   7.679  24.740  0.00  0.00    -0.396 OA
HETATM   29  H   UNL     1       4.461   7.285  24.961  0.00  0.00     0.210 HD
ENDBRANCH  25  28
ENDBRANCH  20  22
ENDBRANCH   6  20
BRANCH   4  30
HETATM   30  C   UNL     1       2.320  14.838  24.105  0.00  0.00     0.251 C 
HETATM   31  O   UNL     1       1.335  15.066  23.413  0.00  0.00    -0.268 OA
HETATM   32  N   UNL     1       2.230  14.840  25.471  0.00  0.00    -0.366 N 
HETATM   33  H   UNL     1       3.072  14.875  26.030  0.00  0.00     0.159 HD
HETATM   34  H   UNL     1       1.354  15.131  25.880  0.00  0.00     0.159 HD
ENDBRANCH   4  30
TORSDOF 5
ENDMDL
MODEL 4
REMARK VINA RESULT:    -8.608      2.736      4.860
REMARK INTER + INTRA:         -11.518
REMARK INTER:                 -10.285
REMARK INTRA:                  -1.233
REMARK UNBOUND:                -0.646
REMARK  5 active torsions:
REMARK  status: ('A' for Active; 'I' for Inactive)
REMARK    1  A    between atoms: N_10  and  C_14 
REMARK    2  A    between atoms: C_17  and  C_18 
REMARK       I    between atoms: C_18  and  N_20 
REMARK    3  A    between atoms: C_22  and  N_23 
REMARK    4  A    between atoms: N_23  and  C_24 
REMARK    5  A    between atoms: C_27  and  O_28 
ROOT
HETATM    1  C   UNL     1       8.749  10.548  22.903  0.00  0.00     0.041 A 
HETATM    2  C   UNL     1       9.276   9.515  23.675  0.00  0.00     0.031 A 
HETATM    3  C   UNL     1       8.727   8.227  23.606  0.00  0.00     0.022 A 
HETATM    4  C   UNL     1       7.623   7.948  22.783  0.00  0.00     0.058 A 
HETATM    5  C   UNL     1       7.595  10.262  22.145  0.00  0.00     0.060 A 
HETATM    6  C   UNL     1       7.014   8.985  22.056  0.00  0.00     0.046 A 
ENDROOT
BRANCH   1   7
HETATM    7  N   UNL     1       9.328  11.868  22.821  0.00  0.00    -0.324 N 
HETATM    8  C   UNL     1       8.718  13.124  22.826  0.00  0.00     0.031 A 
HETATM    9  C   UNL     1       7.263  13.436  22.993  0.00  0.00     0.067 C 
HETATM   10  C   UNL     1       9.698  14.103  22.684  0.00  0.00     0.040 A 
HETATM   11  C   UNL     1       7.031  14.925  23.381  0.00  0.00    -0.036 C 
HETATM   12  C   UNL     1       7.897  15.862  22.506  0.00  0.00     0.093 C 
HETATM   13  C   UNL     1       7.352  15.143  24.876  0.00  0.00     0.015 C 
HETATM   14  C   UNL     1       5.547  15.264  23.159  0.00  0.00     0.015 C 
HETATM   15  C   UNL     1       9.375  15.523  22.598  0.00  0.00     0.162 C 
HETATM   16  O   UNL     1      10.237  16.397  22.546  0.00  0.00    -0.292 OA
HETATM   17  C   UNL     1      10.956  13.468  22.720  0.00  0.00    -0.030 A 
HETATM   18  C   UNL     1      10.695  12.119  22.789  0.00  0.00     0.105 A 
HETATM   19  C   UNL     1      12.297  14.110  22.705  0.00  0.00     0.050 C 
ENDBRANCH   1   7
BRANCH   6  20
HETATM   20  N   UNL     1       5.931   8.772  21.212  0.00  0.00    -0.384 N 
HETATM   21  H   UNL     1       5.069   8.443  21.646  0.00  0.00     0.160 HD
BRANCH  20  22
HETATM   22  C   UNL     1       5.952   9.014  19.775  0.00  0.00     0.082 C 
HETATM   23  C   UNL     1       4.984  10.140  19.389  0.00  0.00     0.027 C 
HETATM   24  C   UNL     1       4.931  10.318  17.873  0.00  0.00     0.034 C 
HETATM   25  C   UNL     1       4.528   9.018  17.183  0.00  0.00     0.118 C 
HETATM   26  C   UNL     1       5.476   7.879  17.553  0.00  0.00     0.034 C 
HETATM   27  C   UNL     1       5.577   7.703  19.063  0.00  0.00     0.027 C 
BRANCH  25  28
HETATM   28  O   UNL     1       4.518   9.197  15.774  0.00  0.00    -0.396 OA
HETATM   29  H   UNL     1       3.731   9.715  15.532  0.00  0.00     0.210 HD
ENDBRANCH  25  28
ENDBRANCH  20  22
ENDBRANCH   6  20
BRANCH   4  30
HETATM   30  C   UNL     1       7.199   6.520  22.705  0.00  0.00     0.251 C 
HETATM   31  O   UNL     1       7.159   5.912  21.642  0.00  0.00    -0.268 OA
HETATM   32  N   UNL     1       6.787   5.925  23.867  0.00  0.00    -0.366 N 
HETATM   33  H   UNL     1       6.612   6.491  24.687  0.00  0.00     0.159 HD
HETATM   34  H   UNL     1       6.359   5.013  23.798  0.00  0.00     0.159 HD
ENDBRANCH   4  30
TORSDOF 5
ENDMDL
MODEL 5
REMARK VINA RESULT:    -8.477      2.983      7.523
REMARK INTER + INTRA:         -11.354
REMARK INTER:                  -9.988
REMARK INTRA:                  -1.366
REMARK UNBOUND:                -0.646
REMARK  5 active torsions:
REMARK  status: ('A' for Active; 'I' for Inactive)
REMARK    1  A    between atoms: N_10  and  C_14 
REMARK    2  A    between atoms: C_17  and  C_18 
REMARK       I    between atoms: C_18  and  N_20 
REMARK    3  A    between atoms: C_22  and  N_23 
REMARK    4  A    between atoms: N_23  and  C_24 
REMARK    5  A    between atoms: C_27  and  O_28 
ROOT
HETATM    1  C   UNL     1       9.356  11.162  23.465  0.00  0.00     0.041 A 
HETATM    2  C   UNL     1      10.663  11.388  23.888  0.00  0.00     0.031 A 
HETATM    3  C   UNL     1      11.236  12.663  23.769  0.00  0.00     0.022 A 
HETATM    4  C   UNL     1      10.525  13.732  23.202  0.00  0.00     0.058 A 
HETATM    5  C   UNL     1       8.689  12.230  22.830  0.00  0.00     0.060 A 
HETATM    6  C   UNL     1       9.234  13.519  22.688  0.00  0.00     0.046 A 
ENDROOT
BRANCH   1   7
HETATM    7  N   UNL     1       8.650   9.918  23.662  0.00  0.00    -0.324 N 
HETATM    8  C   UNL     1       7.288   9.672  23.848  0.00  0.00     0.031 A 
HETATM    9  C   UNL     1       6.165  10.662  23.822  0.00  0.00     0.067 C 
HETATM   10  C   UNL     1       7.098   8.305  24.037  0.00  0.00     0.040 A 
HETATM   11  C   UNL     1       4.786   9.967  23.630  0.00  0.00    -0.036 C 
HETATM   12  C   UNL     1       4.663   8.727  24.547  0.00  0.00     0.093 C 
HETATM   13  C   UNL     1       4.595   9.558  22.152  0.00  0.00     0.015 C 
HETATM   14  C   UNL     1       3.677  10.970  23.993  0.00  0.00     0.015 C 
HETATM   15  C   UNL     1       5.786   7.731  24.313  0.00  0.00     0.162 C 
HETATM   16  O   UNL     1       5.598   6.520  24.408  0.00  0.00    -0.292 OA
HETATM   17  C   UNL     1       8.336   7.662  23.838  0.00  0.00    -0.030 A 
HETATM   18  C   UNL     1       9.253   8.666  23.628  0.00  0.00     0.105 A 
HETATM   19  C   UNL     1       8.609   6.200  23.836  0.00  0.00     0.050 C 
ENDBRANCH   1   7
BRANCH   6  20
HETATM   20  N   UNL     1       8.472  14.538  22.130  0.00  0.00    -0.384 N 
HETATM   21  H   UNL     1       8.809  14.937  21.254  0.00  0.00     0.160 HD
BRANCH  20  22
HETATM   22  C   UNL     1       7.228  15.036  22.701  0.00  0.00     0.082 C 
HETATM   23  C   UNL     1       7.324  15.148  24.228  0.00  0.00     0.027 C 
HETATM   24  C   UNL     1       5.986  15.569  24.831  0.00  0.00     0.034 C 
HETATM   25  C   UNL     1       4.879  14.592  24.443  0.00  0.00     0.118 C 
HETATM   26  C   UNL     1       4.763  14.463  22.925  0.00  0.00     0.034 C 
HETATM   27  C   UNL     1       6.095  14.078  22.293  0.00  0.00     0.027 C 
BRANCH  25  28
HETATM   28  O   UNL     1       3.638  15.022  24.985  0.00  0.00    -0.396 OA
HETATM   29  H   UNL     1       3.731  15.944  25.279  0.00  0.00     0.210 HD
ENDBRANCH  25  28
ENDBRANCH  20  22
ENDBRANCH   6  20
BRANCH   4  30
HETATM   30  C   UNL     1      11.195  15.065  23.233  0.00  0.00     0.251 C 
HETATM   31  O   UNL     1      10.826  15.959  23.984  0.00  0.00    -0.268 OA
HETATM   32  N   UNL     1      12.205  15.278  22.334  0.00  0.00    -0.366 N 
HETATM   33  H   UNL     1      12.352  14.623  21.578  0.00  0.00     0.159 HD
HETATM   34  H   UNL     1      12.561  16.219  22.247  0.00  0.00     0.159 HD
ENDBRANCH   4  30
TORSDOF 5
ENDMDL
MODEL 6
REMARK VINA RESULT:    -8.445      2.929      5.087
REMARK INTER + INTRA:         -11.313
REMARK INTER:                 -10.066
REMARK INTRA:                  -1.247
REMARK UNBOUND:                -0.646
REMARK  5 active torsions:
REMARK  status: ('A' for Active; 'I' for Inactive)
REMARK    1  A    between atoms: N_10  and  C_14 
REMARK    2  A    between atoms: C_17  and  C_18 
REMARK       I    between atoms: C_18  and  N_20 
REMARK    3  A    between atoms: C_22  and  N_23 
REMARK    4  A    between atoms: N_23  and  C_24 
REMARK    5  A    between atoms: C_27  and  O_28 
ROOT
HETATM    1  C   UNL     1       9.422  10.681  24.224  0.00  0.00     0.041 A 
HETATM    2  C   UNL     1      10.228   9.558  24.051  0.00  0.00     0.031 A 
HETATM    3  C   UNL     1       9.686   8.367  23.549  0.00  0.00     0.022 A 
HETATM    4  C   UNL     1       8.321   8.263  23.233  0.00  0.00     0.058 A 
HETATM    5  C   UNL     1       8.043  10.530  23.973  0.00  0.00     0.060 A 
HETATM    6  C   UNL     1       7.463   9.350  23.475  0.00  0.00     0.046 A 
ENDROOT
BRANCH   1   7
HETATM    7  N   UNL     1       9.922  11.977  24.618  0.00  0.00    -0.324 N 
HETATM    8  C   UNL     1       9.926  13.191  23.930  0.00  0.00     0.031 A 
HETATM    9  C   UNL     1       9.332  13.486  22.587  0.00  0.00     0.067 C 
HETATM   10  C   UNL     1      10.558  14.153  24.713  0.00  0.00     0.040 A 
HETATM   11  C   UNL     1       9.150  15.014  22.357  0.00  0.00    -0.036 C 
HETATM   12  C   UNL     1      10.415  15.789  22.797  0.00  0.00     0.093 C 
HETATM   13  C   UNL     1       7.915  15.527  23.129  0.00  0.00     0.015 C 
HETATM   14  C   UNL     1       8.910  15.259  20.857  0.00  0.00     0.015 C 
HETATM   15  C   UNL     1      10.773  15.519  24.249  0.00  0.00     0.162 C 
HETATM   16  O   UNL     1      11.265  16.393  24.960  0.00  0.00    -0.292 OA
HETATM   17  C   UNL     1      10.844  13.575  25.967  0.00  0.00    -0.030 A 
HETATM   18  C   UNL     1      10.459  12.258  25.870  0.00  0.00     0.105 A 
HETATM   19  C   UNL     1      11.424  14.242  27.162  0.00  0.00     0.050 C 
ENDBRANCH   1   7
BRANCH   6  20
HETATM   20  N   UNL     1       6.108   9.317  23.169  0.00  0.00    -0.384 N 
HETATM   21  H   UNL     1       5.489   8.916  23.872  0.00  0.00     0.160 HD
BRANCH  20  22
HETATM   22  C   UNL     1       5.534   9.841  21.937  0.00  0.00     0.082 C 
HETATM   23  C   UNL     1       5.400   8.741  20.876  0.00  0.00     0.027 C 
HETATM   24  C   UNL     1       4.898   9.316  19.553  0.00  0.00     0.034 C 
HETATM   25  C   UNL     1       5.822  10.422  19.051  0.00  0.00     0.118 C 
HETATM   26  C   UNL     1       5.973  11.530  20.090  0.00  0.00     0.034 C 
HETATM   27  C   UNL     1       6.439  10.979  21.433  0.00  0.00     0.027 C 
BRANCH  25  28
HETATM   28  O   UNL     1       5.318  10.965  17.839  0.00  0.00    -0.396 OA
HETATM   29  H   UNL     1       5.011  10.234  17.275  0.00  0.00     0.210 HD
ENDBRANCH  25  28
ENDBRANCH  20  22
ENDBRANCH   6  20
BRANCH   4  30
HETATM   30  C   UNL     1       7.883   6.985  22.600  0.00  0.00     0.251 C 
HETATM   31  O   UNL     1       6.913   6.358  23.010  0.00  0.00    -0.268 OA
HETATM   32  N   UNL     1       8.650   6.497  21.577  0.00  0.00    -0.366 N 
HETATM   33  H   UNL     1       9.561   6.899  21.397  0.00  0.00     0.159 HD
HETATM   34  H   UNL     1       8.448   5.565  21.246  0.00  0.00     0.159 HD
ENDBRANCH   4  30
TORSDOF 5
ENDMDL
MODEL 7
REMARK VINA RESULT:    -8.367      1.894      2.575
REMARK INTER + INTRA:         -11.215
REMARK INTER:                  -9.928
REMARK INTRA:                  -1.287
REMARK UNBOUND:                -0.646
REMARK  5 active torsions:
REMARK  status: ('A' for Active; 'I' for Inactive)
REMARK    1  A    between atoms: N_10  and  C_14 
REMARK    2  A    between atoms: C_17  and  C_18 
REMARK       I    between atoms: C_18  and  N_20 
REMARK    3  A    between atoms: C_22  and  N_23 
REMARK    4  A    between atoms: N_23  and  C_24 
REMARK    5  A    between atoms: C_27  and  O_28 
ROOT
HETATM    1  C   UNL     1       6.221  14.559  24.307  0.00  0.00     0.041 A 
HETATM    2  C   UNL     1       5.403  15.685  24.269  0.00  0.00     0.031 A 
HETATM    3  C   UNL     1       4.059  15.573  23.884  0.00  0.00     0.022 A 
HETATM    4  C   UNL     1       3.511  14.337  23.505  0.00  0.00     0.058 A 
HETATM    5  C   UNL     1       5.670  13.345  23.849  0.00  0.00     0.060 A 
HETATM    6  C   UNL     1       4.329  13.195  23.450  0.00  0.00     0.046 A 
ENDROOT
BRANCH   1   7
HETATM    7  N   UNL     1       7.576  14.564  24.807  0.00  0.00    -0.324 N 
HETATM    8  C   UNL     1       8.759  14.118  24.215  0.00  0.00     0.031 A 
HETATM    9  C   UNL     1       8.942  13.563  22.836  0.00  0.00     0.067 C 
HETATM   10  C   UNL     1       9.809  14.300  25.111  0.00  0.00     0.040 A 
HETATM   11  C   UNL     1      10.434  13.593  22.393  0.00  0.00    -0.036 C 
HETATM   12  C   UNL     1      11.353  13.083  23.528  0.00  0.00     0.093 C 
HETATM   13  C   UNL     1      10.840  15.025  21.981  0.00  0.00     0.015 C 
HETATM   14  C   UNL     1      10.599  12.679  21.167  0.00  0.00     0.015 C 
HETATM   15  C   UNL     1      11.173  13.880  24.810  0.00  0.00     0.162 C 
HETATM   16  O   UNL     1      12.118  14.102  25.563  0.00  0.00    -0.292 OA
HETATM   17  C   UNL     1       9.309  14.989  26.234  0.00  0.00    -0.030 A 
HETATM   18  C   UNL     1       7.956  15.120  26.024  0.00  0.00     0.105 A 
HETATM   19  C   UNL     1      10.075  15.492  27.405  0.00  0.00     0.050 C 
ENDBRANCH   1   7
BRANCH   6  20
HETATM   20  N   UNL     1       3.845  11.941  23.100  0.00  0.00    -0.384 N 
HETATM   21  H   UNL     1       3.111  11.551  23.690  0.00  0.00     0.160 HD
BRANCH  20  22
HETATM   22  C   UNL     1       4.299  11.182  21.942  0.00  0.00     0.082 C 
HETATM   23  C   UNL     1       5.694  10.590  22.180  0.00  0.00     0.027 C 
HETATM   24  C   UNL     1       6.210   9.886  20.927  0.00  0.00     0.034 C 
HETATM   25  C   UNL     1       6.239  10.840  19.736  0.00  0.00     0.118 C 
HETATM   26  C   UNL     1       4.861  11.445  19.478  0.00  0.00     0.034 C 
HETATM   27  C   UNL     1       4.305  12.123  20.725  0.00  0.00     0.027 C 
BRANCH  25  28
HETATM   28  O   UNL     1       6.689  10.156  18.575  0.00  0.00    -0.396 OA
HETATM   29  H   UNL     1       6.079  10.351  17.844  0.00  0.00     0.210 HD
ENDBRANCH  25  28
ENDBRANCH  20  22
ENDBRANCH   6  20
BRANCH   4  30
HETATM   30  C   UNL     1       2.045  14.320  23.226  0.00  0.00     0.251 C 
HETATM   31  O   UNL     1       1.597  14.011  22.128  0.00  0.00    -0.268 OA
HETATM   32  N   UNL     1       1.212  14.732  24.230  0.00  0.00    -0.366 N 
HETATM   33  H   UNL     1       1.596  15.192  25.045  0.00  0.00     0.159 HD
HETATM   34  H   UNL     1       0.237  14.865  24.003  0.00  0.00     0.159 HD
ENDBRANCH   4  30
TORSDOF 5
ENDMDL
MODEL 8
REMARK VINA RESULT:    -8.356      2.798      8.205
REMARK INTER + INTRA:         -11.200
REMARK INTER:                 -10.554
REMARK INTRA:                  -0.646
REMARK UNBOUND:                -0.646
REMARK  5 active torsions:
REMARK  status: ('A' for Active; 'I' for Inactive)
REMARK    1  A    between atoms: N_10  and  C_14 
REMARK    2  A    between atoms: C_17  and  C_18 
REMARK       I    between atoms: C_18  and  N_20 
REMARK    3  A    between atoms: C_22  and  N_23 
REMARK    4  A    between atoms: N_23  and  C_24 
REMARK    5  A    between atoms: C_27  and  O_28 
ROOT
HETATM    1  C   UNL     1       7.227  13.693  22.946  0.00  0.00     0.041 A 
HETATM    2  C   UNL     1       6.900  14.964  22.481  0.00  0.00     0.031 A 
HETATM    3  C   UNL     1       7.909  15.861  22.099  0.00  0.00     0.022 A 
HETATM    4  C   UNL     1       9.267  15.515  22.198  0.00  0.00     0.058 A 
HETATM    5  C   UNL     1       8.596  13.398  23.109  0.00  0.00     0.060 A 
HETATM    6  C   UNL     1       9.634  14.272  22.742  0.00  0.00     0.046 A 
ENDROOT
BRANCH   1   7
HETATM    7  N   UNL     1       6.253  12.670  23.243  0.00  0.00    -0.324 N 
HETATM    8  C   UNL     1       4.861  12.743  23.320  0.00  0.00     0.031 A 
HETATM    9  C   UNL     1       3.987  13.926  23.038  0.00  0.00     0.067 C 
HETATM   10  C   UNL     1       4.362  11.493  23.679  0.00  0.00     0.040 A 
HETATM   11  C   UNL     1       2.506  13.510  22.805  0.00  0.00    -0.036 C 
HETATM   12  C   UNL     1       2.049  12.485  23.870  0.00  0.00     0.093 C 
HETATM   13  C   UNL     1       2.335  12.917  21.388  0.00  0.00     0.015 C 
HETATM   14  C   UNL     1       1.622  14.765  22.906  0.00  0.00     0.015 C 
HETATM   15  C   UNL     1       2.940  11.254  23.897  0.00  0.00     0.162 C 
HETATM   16  O   UNL     1       2.484  10.139  24.142  0.00  0.00    -0.292 OA
HETATM   17  C   UNL     1       5.439  10.584  23.703  0.00  0.00    -0.030 A 
HETATM   18  C   UNL     1       6.567  11.331  23.449  0.00  0.00     0.105 A 
HETATM   19  C   UNL     1       5.384   9.117  23.936  0.00  0.00     0.050 C 
ENDBRANCH   1   7
BRANCH   6  20
HETATM   20  N   UNL     1      10.958  13.864  22.852  0.00  0.00    -0.384 N 
HETATM   21  H   UNL     1      11.451  13.669  21.981  0.00  0.00     0.160 HD
BRANCH  20  22
HETATM   22  C   UNL     1      11.671  13.729  24.115  0.00  0.00     0.082 C 
HETATM   23  C   UNL     1      10.989  12.706  25.031  0.00  0.00     0.027 C 
HETATM   24  C   UNL     1      11.678  12.646  26.392  0.00  0.00     0.034 C 
HETATM   25  C   UNL     1      11.695  14.020  27.058  0.00  0.00     0.118 C 
HETATM   26  C   UNL     1      12.370  15.058  26.164  0.00  0.00     0.034 C 
HETATM   27  C   UNL     1      11.724  15.113  24.784  0.00  0.00     0.027 C 
BRANCH  25  28
HETATM   28  O   UNL     1      12.371  13.948  28.306  0.00  0.00    -0.396 OA
HETATM   29  H   UNL     1      13.314  14.136  28.159  0.00  0.00     0.210 HD
ENDBRANCH  25  28
ENDBRANCH  20  22
ENDBRANCH   6  20
BRANCH   4  30
HETATM   30  C   UNL     1      10.243  16.505  21.657  0.00  0.00     0.251 C 
HETATM   31  O   UNL     1      11.449  16.287  21.646  0.00  0.00    -0.268 OA
HETATM   32  N   UNL     1       9.746  17.706  21.229  0.00  0.00    -0.366 N 
HETATM   33  H   UNL     1       8.791  17.960  21.446  0.00  0.00     0.159 HD
HETATM   34  H   UNL     1      10.410  18.432  21.003  0.00  0.00     0.159 HD
ENDBRANCH   4  30
TORSDOF 5
ENDMDL
MODEL 9
REMARK VINA RESULT:    -8.332      2.024      6.776
REMARK INTER + INTRA:         -11.170
REMARK INTER:                  -9.921
REMARK INTRA:                  -1.249
REMARK UNBOUND:                -0.646
REMARK  5 active torsions:
REMARK  status: ('A' for Active; 'I' for Inactive)
REMARK    1  A    between atoms: N_10  and  C_14 
REMARK    2  A    between atoms: C_17  and  C_18 
REMARK       I    between atoms: C_18  and  N_20 
REMARK    3  A    between atoms: C_22  and  N_23 
REMARK    4  A    between atoms: N_23  and  C_24 
REMARK    5  A    between atoms: C_27  and  O_28 
ROOT
HETATM    1  C   UNL     1       7.350  14.740  23.360  0.00  0.00     0.041 A 
HETATM    2  C   UNL     1       7.947  15.839  22.748  0.00  0.00     0.031 A 
HETATM    3  C   UNL     1       9.341  15.995  22.774  0.00  0.00     0.022 A 
HETATM    4  C   UNL     1      10.166  15.069  23.432  0.00  0.00     0.058 A 
HETATM    5  C   UNL     1       8.191  13.867  24.080  0.00  0.00     0.060 A 
HETATM    6  C   UNL     1       9.591  13.994  24.132  0.00  0.00     0.046 A 
ENDROOT
BRANCH   1   7
HETATM    7  N   UNL     1       5.940  14.439  23.277  0.00  0.00    -0.324 N 
HETATM    8  C   UNL     1       5.248  13.582  22.420  0.00  0.00     0.031 A 
HETATM    9  C   UNL     1       5.819  12.670  21.377  0.00  0.00     0.067 C 
HETATM   10  C   UNL     1       3.887  13.663  22.701  0.00  0.00     0.040 A 
HETATM   11  C   UNL     1       4.801  11.575  20.946  0.00  0.00    -0.036 C 
HETATM   12  C   UNL     1       3.400  12.189  20.711  0.00  0.00     0.093 C 
HETATM   13  C   UNL     1       4.724  10.466  22.019  0.00  0.00     0.015 C 
HETATM   14  C   UNL     1       5.293  10.937  19.636  0.00  0.00     0.015 C 
HETATM   15  C   UNL     1       2.887  12.925  21.938  0.00  0.00     0.162 C 
HETATM   16  O   UNL     1       1.692  12.934  22.226  0.00  0.00    -0.292 OA
HETATM   17  C   UNL     1       3.725  14.483  23.836  0.00  0.00    -0.030 A 
HETATM   18  C   UNL     1       4.983  14.946  24.149  0.00  0.00     0.105 A 
HETATM   19  C   UNL     1       2.466  14.783  24.567  0.00  0.00     0.050 C 
ENDBRANCH   1   7
BRANCH   6  20
HETATM   20  N   UNL     1      10.351  13.035  24.790  0.00  0.00    -0.384 N 
HETATM   21  H   UNL     1      10.873  13.345  25.609  0.00  0.00     0.160 HD
BRANCH  20  22
HETATM   22  C   UNL     1      10.420  11.634  24.397  0.00  0.00     0.082 C 
HETATM   23  C   UNL     1      10.893  11.487  22.945  0.00  0.00     0.027 C 
HETATM   24  C   UNL     1      10.861  10.025  22.506  0.00  0.00     0.034 C 
HETATM   25  C   UNL     1       9.463   9.435  22.666  0.00  0.00     0.118 C 
HETATM   26  C   UNL     1       8.968   9.569  24.104  0.00  0.00     0.034 C 
HETATM   27  C   UNL     1       9.023  11.016  24.582  0.00  0.00     0.027 C 
BRANCH  25  28
HETATM   28  O   UNL     1       9.465   8.066  22.284  0.00  0.00    -0.396 OA
HETATM   29  H   UNL     1       8.546   7.785  22.134  0.00  0.00     0.210 HD
ENDBRANCH  25  28
ENDBRANCH  20  22
ENDBRANCH   6  20
BRANCH   4  30
HETATM   30  C   UNL     1      11.636  15.277  23.295  0.00  0.00     0.251 C 
HETATM   31  O   UNL     1      12.371  15.381  24.270  0.00  0.00    -0.268 OA
HETATM   32  N   UNL     1      12.134  15.416  22.028  0.00  0.00    -0.366 N 
HETATM   33  H   UNL     1      11.499  15.552  21.251  0.00  0.00     0.159 HD
HETATM   34  H   UNL     1      13.097  15.705  21.933  0.00  0.00     0.159 HD
ENDBRANCH   4  30
TORSDOF 5
ENDMDL
