REMARK  5 active torsions:
REMARK  status: ('A' for Active; 'I' for Inactive)
REMARK    1  A    between atoms: C_7  and  N_8 
REMARK       I    between atoms: N_8  and  C_10 
REMARK    2  A    between atoms: C_10  and  C_12 
REMARK    3  A    between atoms: C_14  and  O_15 
REMARK    4  A    between atoms: C_22  and  C_23 
REMARK    5  A    between atoms: C_23  and  C_24 
ROOT
HETATM    1  C   UNL     1      -5.136   1.199  -0.233  0.00  0.00     0.066 C 
HETATM    2  C   UNL     1      -5.771  -0.042  -0.020  0.00  0.00     0.035 C 
HETATM    3  C   UNL     1      -5.939   2.309  -0.572  0.00  0.00     0.083 C 
HETATM    4  C   UNL     1      -7.314   2.182  -0.808  0.00  0.00     0.069 C 
HETATM    5  C   UNL     1      -7.850   0.891  -0.761  0.00  0.00     0.065 A 
HETATM    6  C   UNL     1      -7.112  -0.231  -0.404  0.00  0.00     0.020 A 
HETATM    7  N   UNL     1      -9.108   0.424  -1.008  0.00  0.00    -0.277 N 
HETATM    8  H   UNL     1      -9.927   0.970  -1.258  0.00  0.00     0.189 HD
HETATM    9  N   UNL     1      -9.227  -0.910  -0.947  0.00  0.00    -0.178 NA
HETATM   10  C   UNL     1      -8.001  -1.341  -0.602  0.00  0.00     0.071 A 
ENDROOT
BRANCH   1  11
HETATM   11  C   UNL     1      -3.651   1.397  -0.109  0.00  0.00     0.260 C 
HETATM   12  N   UNL     1      -2.746   0.344  -0.403  0.00  0.00    -0.318 N 
HETATM   13  C   UNL     1      -3.162  -0.953  -0.953  0.00  0.00     0.159 C 
HETATM   14  O   UNL     1      -3.308   2.526   0.245  0.00  0.00    -0.267 OA
BRANCH  12  15
HETATM   15  C   UNL     1      -1.329   0.473  -0.158  0.00  0.00     0.037 A 
HETATM   16  C   UNL     1      -0.591  -0.664   0.219  0.00  0.00     0.036 A 
HETATM   17  C   UNL     1       0.783  -0.604   0.494  0.00  0.00    -0.060 A 
HETATM   18  C   UNL     1       1.506  -1.822   0.987  0.00  0.00     0.048 C 
HETATM   19  C   UNL     1       1.444   0.617   0.367  0.00  0.00     0.007 A 
HETATM   20  C   UNL     1       0.739   1.751  -0.034  0.00  0.00     0.003 A 
HETATM   21  C   UNL     1      -0.639   1.682  -0.286  0.00  0.00     0.030 A 
ENDBRANCH  12  15
ENDBRANCH   1  11
BRANCH   3  22
HETATM   22  O   UNL     1      -5.448   3.585  -0.696  0.00  0.00    -0.360 OA
HETATM   23  H   UNL     1      -4.529   3.585  -0.342  0.00  0.00     0.217 HD
ENDBRANCH   3  22
BRANCH  10  24
HETATM   24  C   UNL     1      -7.754  -2.829  -0.515  0.00  0.00     0.100 C 
BRANCH  24  25
HETATM   25  C   UNL     1      -6.839  -3.315  -1.639  0.00  0.00    -0.052 A 
HETATM   26  C   UNL     1      -6.673  -2.621  -2.845  0.00  0.00     0.007 A 
HETATM   27  C   UNL     1      -5.809  -3.085  -3.838  0.00  0.00     0.001 A 
HETATM   28  C   UNL     1      -5.163  -4.310  -3.688  0.00  0.00     0.007 A 
HETATM   29  C   UNL     1      -5.410  -5.102  -2.566  0.00  0.00    -0.061 A 
HETATM   30  C   UNL     1      -6.214  -4.581  -1.528  0.00  0.00     0.014 A 
HETATM   31  C   UNL     1      -4.820  -6.483  -2.504  0.00  0.00     0.048 C 
ENDBRANCH  24  25
ENDBRANCH  10  24
TORSDOF 5
