MODEL 1
REMARK VINA RESULT:    -6.013      0.000      0.000
REMARK INTER + INTRA:          -8.984
REMARK INTER:                  -7.927
REMARK INTRA:                  -1.057
REMARK UNBOUND:                -1.214
REMARK  5 active torsions:
REMARK  status: ('A' for Active; 'I' for Inactive)
REMARK    1  A    between atoms: N8_1  and  C24_2 
REMARK    2  A    between atoms: N8_1  and  C7_8 
REMARK    3  A    between atoms: C2_13  and  N1_14 
REMARK    4  A    between atoms: N1_14  and  C17_15 
REMARK    5  A    between atoms: C14_16  and  C13_19 
ROOT
ATOM      1  C17 FTA A   1       3.076  16.666  17.995  1.00  0.00     0.142 C 
ATOM      2  C14 FTA A   1       2.750  15.709  18.885  1.00  0.00     0.158 C 
ATOM      3  C18 FTA A   1       3.207  15.803  20.255  1.00  0.00     0.069 C 
ATOM      4  N21 FTA A   1       3.692  15.980  21.308  1.00  0.00    -0.197 NA
ENDROOT
BRANCH   2   5
ATOM      5  C13 FTA A   1       1.907  14.570  18.454  1.00  0.00     0.197 A 
ATOM      6  N15 FTA A   1       1.999  13.258  18.915  1.00  0.00    -0.093 NA
ATOM      7  N19 FTA A   1       1.062  12.504  18.221  1.00  0.00    -0.231 N 
ATOM      8  N20 FTA A   1       0.386  13.326  17.331  1.00  0.00    -0.017 NA
ATOM      9  H15 FTA A   1       0.894  11.496  18.348  1.00  0.00     0.200 HD
ATOM     10  N16 FTA A   1       0.902  14.609  17.481  1.00  0.00    -0.090 NA
ENDBRANCH   2   5
BRANCH   1  11
ATOM     11  N1  FTA A   1       3.651  16.305  16.832  1.00  0.00    -0.389 N 
ATOM     12  H11 FTA A   1       3.032  16.145  16.024  1.00  0.00     0.159 HD
BRANCH  11  13
ATOM     13  C2  FTA A   1       5.048  16.128  16.634  1.00  0.00     0.028 A 
ATOM     14  C4  FTA A   1       5.983  16.460  17.611  1.00  0.00     0.031 A 
ATOM     15  C6  FTA A   1       7.343  16.480  17.272  1.00  0.00     0.031 A 
ATOM     16  C7  FTA A   1       7.790  16.181  15.988  1.00  0.00     0.032 A 
ATOM     17  C5  FTA A   1       6.851  15.830  15.035  1.00  0.00     0.031 A 
ATOM     18  C3  FTA A   1       5.497  15.817  15.347  1.00  0.00     0.031 A 
BRANCH  16  19
ATOM     19  N8  FTA A   1       9.128  16.397  15.569  1.00  0.00    -0.356 N 
ATOM     20  H1  FTA A   1       9.572  15.657  15.007  1.00  0.00     0.166 HD
BRANCH  19  21
ATOM     21  C24 FTA A   1       9.909  17.555  15.863  1.00  0.00     0.032 A 
ATOM     22  C26 FTA A   1      11.063  17.477  16.607  1.00  0.00     0.029 A 
ATOM     23  C28 FTA A   1      11.678  18.650  17.001  1.00  0.00     0.002 A 
ATOM     24  C30 FTA A   1      11.193  19.898  16.649  1.00  0.00     0.000 A 
ATOM     25  C29 FTA A   1      10.066  19.989  15.876  1.00  0.00     0.002 A 
ATOM     26  C27 FTA A   1       9.439  18.803  15.478  1.00  0.00     0.029 A 
ENDBRANCH  19  21
ENDBRANCH  16  19
ENDBRANCH  11  13
ENDBRANCH   1  11
TORSDOF 5
ENDMDL
MODEL 2
REMARK VINA RESULT:    -5.993      3.447      8.520
REMARK INTER + INTRA:          -8.959
REMARK INTER:                  -8.026
REMARK INTRA:                  -0.934
REMARK UNBOUND:                -1.214
REMARK  5 active torsions:
REMARK  status: ('A' for Active; 'I' for Inactive)
REMARK    1  A    between atoms: N8_1  and  C24_2 
REMARK    2  A    between atoms: N8_1  and  C7_8 
REMARK    3  A    between atoms: C2_13  and  N1_14 
REMARK    4  A    between atoms: N1_14  and  C17_15 
REMARK    5  A    between atoms: C14_16  and  C13_19 
ROOT
ATOM      1  C17 FTA A   1       5.392  17.784  19.084  1.00  0.00     0.142 C 
ATOM      2  C14 FTA A   1       6.656  17.862  19.546  1.00  0.00     0.158 C 
ATOM      3  C18 FTA A   1       7.763  17.456  18.707  1.00  0.00     0.069 C 
ATOM      4  N21 FTA A   1       8.550  17.041  17.943  1.00  0.00    -0.197 NA
ENDROOT
BRANCH   2   5
ATOM      5  C13 FTA A   1       6.902  18.380  20.911  1.00  0.00     0.197 A 
ATOM      6  N15 FTA A   1       5.965  18.998  21.737  1.00  0.00    -0.093 NA
ATOM      7  N19 FTA A   1       6.619  19.370  22.905  1.00  0.00    -0.231 N 
ATOM      8  N20 FTA A   1       7.952  18.995  22.819  1.00  0.00    -0.017 NA
ATOM      9  H15 FTA A   1       6.183  19.848  23.707  1.00  0.00     0.200 HD
ATOM     10  N16 FTA A   1       8.127  18.371  21.588  1.00  0.00    -0.090 NA
ENDBRANCH   2   5
BRANCH   1  11
ATOM     11  N1  FTA A   1       4.471  17.125  19.813  1.00  0.00    -0.389 N 
ATOM     12  H11 FTA A   1       4.608  17.092  20.834  1.00  0.00     0.159 HD
BRANCH  11  13
ATOM     13  C2  FTA A   1       3.325  16.473  19.283  1.00  0.00     0.028 A 
ATOM     14  C4  FTA A   1       2.661  15.463  19.973  1.00  0.00     0.031 A 
ATOM     15  C6  FTA A   1       1.688  14.708  19.304  1.00  0.00     0.031 A 
ATOM     16  C7  FTA A   1       1.365  14.934  17.969  1.00  0.00     0.032 A 
ATOM     17  C5  FTA A   1       2.016  15.958  17.304  1.00  0.00     0.031 A 
ATOM     18  C3  FTA A   1       2.993  16.709  17.945  1.00  0.00     0.031 A 
BRANCH  16  19
ATOM     19  N8  FTA A   1       0.544  14.055  17.216  1.00  0.00    -0.356 N 
ATOM     20  H1  FTA A   1       0.416  13.100  17.581  1.00  0.00     0.166 HD
BRANCH  19  21
ATOM     21  C24 FTA A   1      -0.119  14.386  15.996  1.00  0.00     0.032 A 
ATOM     22  C26 FTA A   1      -1.218  15.212  15.974  1.00  0.00     0.029 A 
ATOM     23  C28 FTA A   1      -1.916  15.354  14.790  1.00  0.00     0.002 A 
ATOM     24  C30 FTA A   1      -1.532  14.721  13.620  1.00  0.00     0.000 A 
ATOM     25  C29 FTA A   1      -0.417  13.925  13.620  1.00  0.00     0.002 A 
ATOM     26  C27 FTA A   1       0.290  13.777  14.819  1.00  0.00     0.029 A 
ENDBRANCH  19  21
ENDBRANCH  16  19
ENDBRANCH  11  13
ENDBRANCH   1  11
TORSDOF 5
ENDMDL
MODEL 3
REMARK VINA RESULT:    -5.985      3.629      8.514
REMARK INTER + INTRA:          -8.948
REMARK INTER:                  -8.015
REMARK INTRA:                  -0.933
REMARK UNBOUND:                -1.214
REMARK  5 active torsions:
REMARK  status: ('A' for Active; 'I' for Inactive)
REMARK    1  A    between atoms: N8_1  and  C24_2 
REMARK    2  A    between atoms: N8_1  and  C7_8 
REMARK    3  A    between atoms: C2_13  and  N1_14 
REMARK    4  A    between atoms: N1_14  and  C17_15 
REMARK    5  A    between atoms: C14_16  and  C13_19 
ROOT
ATOM      1  C17 FTA A   1       5.197  16.524  17.582  1.00  0.00     0.142 C 
ATOM      2  C14 FTA A   1       6.400  16.812  18.118  1.00  0.00     0.158 C 
ATOM      3  C18 FTA A   1       7.614  16.460  17.412  1.00  0.00     0.069 C 
ATOM      4  N21 FTA A   1       8.505  16.067  16.760  1.00  0.00    -0.197 NA
ENDROOT
BRANCH   2   5
ATOM      5  C13 FTA A   1       6.468  17.505  19.425  1.00  0.00     0.197 A 
ATOM      6  N15 FTA A   1       5.404  17.716  20.299  1.00  0.00    -0.093 NA
ATOM      7  N19 FTA A   1       5.890  18.441  21.380  1.00  0.00    -0.231 N 
ATOM      8  N20 FTA A   1       7.242  18.688  21.192  1.00  0.00    -0.017 NA
ATOM      9  H15 FTA A   1       5.334  18.747  22.192  1.00  0.00     0.200 HD
ATOM     10  N16 FTA A   1       7.605  18.099  19.985  1.00  0.00    -0.090 NA
ENDBRANCH   2   5
BRANCH   1  11
ATOM     11  N1  FTA A   1       4.303  15.838  18.319  1.00  0.00    -0.389 N 
ATOM     12  H11 FTA A   1       4.639  15.400  19.189  1.00  0.00     0.159 HD
BRANCH  11  13
ATOM     13  C2  FTA A   1       2.930  15.674  17.990  1.00  0.00     0.028 A 
ATOM     14  C4  FTA A   1       2.177  14.602  18.462  1.00  0.00     0.031 A 
ATOM     15  C6  FTA A   1       0.906  14.372  17.920  1.00  0.00     0.031 A 
ATOM     16  C7  FTA A   1       0.370  15.180  16.921  1.00  0.00     0.032 A 
ATOM     17  C5  FTA A   1       1.119  16.257  16.480  1.00  0.00     0.031 A 
ATOM     18  C3  FTA A   1       2.388  16.494  16.995  1.00  0.00     0.031 A 
BRANCH  16  19
ATOM     19  N8  FTA A   1      -0.814  14.848  16.214  1.00  0.00    -0.356 N 
ATOM     20  H1  FTA A   1      -1.679  14.745  16.764  1.00  0.00     0.166 HD
BRANCH  19  21
ATOM     21  C24 FTA A   1      -0.906  14.645  14.804  1.00  0.00     0.032 A 
ATOM     22  C26 FTA A   1      -1.975  15.112  14.077  1.00  0.00     0.029 A 
ATOM     23  C28 FTA A   1      -2.090  14.735  12.752  1.00  0.00     0.002 A 
ATOM     24  C30 FTA A   1      -1.154  13.931  12.124  1.00  0.00     0.000 A 
ATOM     25  C29 FTA A   1      -0.065  13.491  12.828  1.00  0.00     0.002 A 
ATOM     26  C27 FTA A   1       0.053  13.868  14.170  1.00  0.00     0.029 A 
ENDBRANCH  19  21
ENDBRANCH  16  19
ENDBRANCH  11  13
ENDBRANCH   1  11
TORSDOF 5
ENDMDL
MODEL 4
REMARK VINA RESULT:    -5.845      1.610      2.503
REMARK INTER + INTRA:          -8.768
REMARK INTER:                  -7.708
REMARK INTRA:                  -1.061
REMARK UNBOUND:                -1.214
REMARK  5 active torsions:
REMARK  status: ('A' for Active; 'I' for Inactive)
REMARK    1  A    between atoms: N8_1  and  C24_2 
REMARK    2  A    between atoms: N8_1  and  C7_8 
REMARK    3  A    between atoms: C2_13  and  N1_14 
REMARK    4  A    between atoms: N1_14  and  C17_15 
REMARK    5  A    between atoms: C14_16  and  C13_19 
ROOT
ATOM      1  C17 FTA A   1       2.849  15.997  19.662  1.00  0.00     0.142 C 
ATOM      2  C14 FTA A   1       2.403  14.951  18.939  1.00  0.00     0.158 C 
ATOM      3  C18 FTA A   1       2.841  13.608  19.256  1.00  0.00     0.069 C 
ATOM      4  N21 FTA A   1       3.322  12.592  19.588  1.00  0.00    -0.197 NA
ENDROOT
BRANCH   2   5
ATOM      5  C13 FTA A   1       1.450  15.185  17.830  1.00  0.00     0.197 A 
ATOM      6  N15 FTA A   1       1.578  16.140  16.824  1.00  0.00    -0.093 NA
ATOM      7  N19 FTA A   1       0.449  16.053  16.019  1.00  0.00    -0.231 N 
ATOM      8  N20 FTA A   1      -0.384  15.058  16.510  1.00  0.00    -0.017 NA
ATOM      9  H15 FTA A   1       0.260  16.635  15.190  1.00  0.00     0.200 HD
ATOM     10  N16 FTA A   1       0.240  14.511  17.626  1.00  0.00    -0.090 NA
ENDBRANCH   2   5
BRANCH   1  11
ATOM     11  N1  FTA A   1       3.404  17.043  19.019  1.00  0.00    -0.389 N 
ATOM     12  H11 FTA A   1       2.790  17.835  18.781  1.00  0.00     0.159 HD
BRANCH  11  13
ATOM     13  C2  FTA A   1       4.772  17.137  18.646  1.00  0.00     0.028 A 
ATOM     14  C4  FTA A   1       5.280  16.488  17.524  1.00  0.00     0.031 A 
ATOM     15  C6  FTA A   1       6.669  16.431  17.342  1.00  0.00     0.031 A 
ATOM     16  C7  FTA A   1       7.558  17.001  18.249  1.00  0.00     0.032 A 
ATOM     17  C5  FTA A   1       7.036  17.664  19.346  1.00  0.00     0.031 A 
ATOM     18  C3  FTA A   1       5.664  17.720  19.551  1.00  0.00     0.031 A 
BRANCH  16  19
ATOM     19  N8  FTA A   1       8.958  16.778  18.199  1.00  0.00    -0.356 N 
ATOM     20  H1  FTA A   1       9.342  16.045  18.813  1.00  0.00     0.166 HD
BRANCH  19  21
ATOM     21  C24 FTA A   1       9.878  17.485  17.367  1.00  0.00     0.032 A 
ATOM     22  C26 FTA A   1      10.588  16.849  16.376  1.00  0.00     0.029 A 
ATOM     23  C28 FTA A   1      11.586  17.548  15.723  1.00  0.00     0.002 A 
ATOM     24  C30 FTA A   1      11.874  18.872  16.009  1.00  0.00     0.000 A 
ATOM     25  C29 FTA A   1      11.148  19.527  16.967  1.00  0.00     0.002 A 
ATOM     26  C27 FTA A   1      10.140  18.821  17.633  1.00  0.00     0.029 A 
ENDBRANCH  19  21
ENDBRANCH  16  19
ENDBRANCH  11  13
ENDBRANCH   1  11
TORSDOF 5
ENDMDL
MODEL 5
REMARK VINA RESULT:    -5.828      3.807      7.583
REMARK INTER + INTRA:          -8.746
REMARK INTER:                  -7.518
REMARK INTRA:                  -1.227
REMARK UNBOUND:                -1.214
REMARK  5 active torsions:
REMARK  status: ('A' for Active; 'I' for Inactive)
REMARK    1  A    between atoms: N8_1  and  C24_2 
REMARK    2  A    between atoms: N8_1  and  C7_8 
REMARK    3  A    between atoms: C2_13  and  N1_14 
REMARK    4  A    between atoms: N1_14  and  C17_15 
REMARK    5  A    between atoms: C14_16  and  C13_19 
ROOT
ATOM      1  C17 FTA A   1       4.315  15.471  11.593  1.00  0.00     0.142 C 
ATOM      2  C14 FTA A   1       3.919  14.190  11.733  1.00  0.00     0.158 C 
ATOM      3  C18 FTA A   1       2.510  13.860  11.733  1.00  0.00     0.069 C 
ATOM      4  N21 FTA A   1       1.343  13.749  11.772  1.00  0.00    -0.197 NA
ENDROOT
BRANCH   2   5
ATOM      5  C13 FTA A   1       4.937  13.124  11.871  1.00  0.00     0.197 A 
ATOM      6  N15 FTA A   1       5.942  13.067  12.835  1.00  0.00    -0.093 NA
ATOM      7  N19 FTA A   1       6.702  11.933  12.579  1.00  0.00    -0.231 N 
ATOM      8  N20 FTA A   1       6.189  11.283  11.467  1.00  0.00    -0.017 NA
ATOM      9  H15 FTA A   1       7.518  11.625  13.128  1.00  0.00     0.200 HD
ATOM     10  N16 FTA A   1       5.088  12.014  11.033  1.00  0.00    -0.090 NA
ENDBRANCH   2   5
BRANCH   1  11
ATOM     11  N1  FTA A   1       5.160  15.995  12.501  1.00  0.00    -0.389 N 
ATOM     12  H11 FTA A   1       6.120  16.204  12.192  1.00  0.00     0.159 HD
BRANCH  11  13
ATOM     13  C2  FTA A   1       4.828  16.282  13.853  1.00  0.00     0.028 A 
ATOM     14  C4  FTA A   1       5.673  15.953  14.910  1.00  0.00     0.031 A 
ATOM     15  C6  FTA A   1       5.191  16.050  16.222  1.00  0.00     0.031 A 
ATOM     16  C7  FTA A   1       3.892  16.463  16.505  1.00  0.00     0.032 A 
ATOM     17  C5  FTA A   1       3.072  16.810  15.445  1.00  0.00     0.031 A 
ATOM     18  C3  FTA A   1       3.527  16.708  14.136  1.00  0.00     0.031 A 
BRANCH  16  19
ATOM     19  N8  FTA A   1       3.319  16.370  17.799  1.00  0.00    -0.356 N 
ATOM     20  H1  FTA A   1       3.330  17.219  18.383  1.00  0.00     0.166 HD
BRANCH  19  21
ATOM     21  C24 FTA A   1       2.727  15.197  18.358  1.00  0.00     0.032 A 
ATOM     22  C26 FTA A   1       3.416  14.390  19.232  1.00  0.00     0.029 A 
ATOM     23  C28 FTA A   1       2.853  13.183  19.602  1.00  0.00     0.002 A 
ATOM     24  C30 FTA A   1       1.611  12.773  19.149  1.00  0.00     0.000 A 
ATOM     25  C29 FTA A   1       0.898  13.585  18.308  1.00  0.00     0.002 A 
ATOM     26  C27 FTA A   1       1.467  14.807  17.929  1.00  0.00     0.029 A 
ENDBRANCH  19  21
ENDBRANCH  16  19
ENDBRANCH  11  13
ENDBRANCH   1  11
TORSDOF 5
ENDMDL
MODEL 6
REMARK VINA RESULT:    -5.783      2.279      8.306
REMARK INTER + INTRA:          -8.687
REMARK INTER:                  -7.579
REMARK INTRA:                  -1.108
REMARK UNBOUND:                -1.214
REMARK  5 active torsions:
REMARK  status: ('A' for Active; 'I' for Inactive)
REMARK    1  A    between atoms: N8_1  and  C24_2 
REMARK    2  A    between atoms: N8_1  and  C7_8 
REMARK    3  A    between atoms: C2_13  and  N1_14 
REMARK    4  A    between atoms: N1_14  and  C17_15 
REMARK    5  A    between atoms: C14_16  and  C13_19 
ROOT
ATOM      1  C17 FTA A   1       8.962  17.820  19.138  1.00  0.00     0.142 C 
ATOM      2  C14 FTA A   1       9.493  18.689  18.254  1.00  0.00     0.158 C 
ATOM      3  C18 FTA A   1       9.347  20.114  18.457  1.00  0.00     0.069 C 
ATOM      4  N21 FTA A   1       9.103  21.231  18.718  1.00  0.00    -0.197 NA
ENDROOT
BRANCH   2   5
ATOM      5  C13 FTA A   1      10.240  18.172  17.084  1.00  0.00     0.197 A 
ATOM      6  N15 FTA A   1       9.683  17.650  15.919  1.00  0.00    -0.093 NA
ATOM      7  N19 FTA A   1      10.730  17.240  15.103  1.00  0.00    -0.231 N 
ATOM      8  N20 FTA A   1      11.933  17.497  15.744  1.00  0.00    -0.017 NA
ATOM      9  H15 FTA A   1      10.629  16.814  14.170  1.00  0.00     0.200 HD
ATOM     10  N16 FTA A   1      11.632  18.084  16.968  1.00  0.00    -0.090 NA
ENDBRANCH   2   5
BRANCH   1  11
ATOM     11  N1  FTA A   1       8.151  16.845  18.685  1.00  0.00    -0.389 N 
ATOM     12  H11 FTA A   1       8.550  15.900  18.589  1.00  0.00     0.159 HD
BRANCH  11  13
ATOM     13  C2  FTA A   1       6.785  17.020  18.328  1.00  0.00     0.028 A 
ATOM     14  C4  FTA A   1       5.874  17.651  19.172  1.00  0.00     0.031 A 
ATOM     15  C6  FTA A   1       4.508  17.586  18.867  1.00  0.00     0.031 A 
ATOM     16  C7  FTA A   1       4.031  16.909  17.748  1.00  0.00     0.032 A 
ATOM     17  C5  FTA A   1       4.951  16.309  16.906  1.00  0.00     0.031 A 
ATOM     18  C3  FTA A   1       6.308  16.350  17.198  1.00  0.00     0.031 A 
BRANCH  16  19
ATOM     19  N8  FTA A   1       2.652  16.652  17.533  1.00  0.00    -0.356 N 
ATOM     20  H1  FTA A   1       2.090  17.410  17.119  1.00  0.00     0.166 HD
BRANCH  19  21
ATOM     21  C24 FTA A   1       1.980  15.431  17.843  1.00  0.00     0.032 A 
ATOM     22  C26 FTA A   1       2.476  14.554  18.778  1.00  0.00     0.029 A 
ATOM     23  C28 FTA A   1       1.876  13.316  18.908  1.00  0.00     0.002 A 
ATOM     24  C30 FTA A   1       0.777  12.940  18.154  1.00  0.00     0.000 A 
ATOM     25  C29 FTA A   1       0.251  13.820  17.246  1.00  0.00     0.002 A 
ATOM     26  C27 FTA A   1       0.859  15.073  17.110  1.00  0.00     0.029 A 
ENDBRANCH  19  21
ENDBRANCH  16  19
ENDBRANCH  11  13
ENDBRANCH   1  11
TORSDOF 5
ENDMDL
MODEL 7
REMARK VINA RESULT:    -5.768      5.805      9.065
REMARK INTER + INTRA:          -8.668
REMARK INTER:                  -7.709
REMARK INTRA:                  -0.959
REMARK UNBOUND:                -1.214
REMARK  5 active torsions:
REMARK  status: ('A' for Active; 'I' for Inactive)
REMARK    1  A    between atoms: N8_1  and  C24_2 
REMARK    2  A    between atoms: N8_1  and  C7_8 
REMARK    3  A    between atoms: C2_13  and  N1_14 
REMARK    4  A    between atoms: N1_14  and  C17_15 
REMARK    5  A    between atoms: C14_16  and  C13_19 
ROOT
ATOM      1  C17 FTA A   1      -4.364  15.468  13.037  1.00  0.00     0.142 C 
ATOM      2  C14 FTA A   1      -5.236  14.700  13.721  1.00  0.00     0.158 C 
ATOM      3  C18 FTA A   1      -6.066  15.284  14.752  1.00  0.00     0.069 C 
ATOM      4  N21 FTA A   1      -6.628  15.878  15.593  1.00  0.00    -0.197 NA
ENDROOT
BRANCH   2   5
ATOM      5  C13 FTA A   1      -5.348  13.260  13.396  1.00  0.00     0.197 A 
ATOM      6  N15 FTA A   1      -4.677  12.593  12.373  1.00  0.00    -0.093 NA
ATOM      7  N19 FTA A   1      -5.102  11.271  12.388  1.00  0.00    -0.231 N 
ATOM      8  N20 FTA A   1      -6.031  11.102  13.403  1.00  0.00    -0.017 NA
ATOM      9  H15 FTA A   1      -4.778  10.532  11.746  1.00  0.00     0.200 HD
ATOM     10  N16 FTA A   1      -6.178  12.332  14.037  1.00  0.00    -0.090 NA
ENDBRANCH   2   5
BRANCH   1  11
ATOM     11  N1  FTA A   1      -3.074  15.085  12.969  1.00  0.00    -0.389 N 
ATOM     12  H11 FTA A   1      -2.732  14.724  12.067  1.00  0.00     0.159 HD
BRANCH  11  13
ATOM     13  C2  FTA A   1      -2.149  15.143  14.047  1.00  0.00     0.028 A 
ATOM     14  C4  FTA A   1      -2.365  15.942  15.168  1.00  0.00     0.031 A 
ATOM     15  C6  FTA A   1      -1.318  16.132  16.079  1.00  0.00     0.031 A 
ATOM     16  C7  FTA A   1      -0.066  15.549  15.900  1.00  0.00     0.032 A 
ATOM     17  C5  FTA A   1       0.125  14.739  14.795  1.00  0.00     0.031 A 
ATOM     18  C3  FTA A   1      -0.896  14.549  13.873  1.00  0.00     0.031 A 
BRANCH  16  19
ATOM     19  N8  FTA A   1       1.062  15.892  16.689  1.00  0.00    -0.356 N 
ATOM     20  H1  FTA A   1       1.515  16.798  16.498  1.00  0.00     0.166 HD
BRANCH  19  21
ATOM     21  C24 FTA A   1       1.622  15.086  17.725  1.00  0.00     0.032 A 
ATOM     22  C26 FTA A   1       2.773  15.453  18.381  1.00  0.00     0.029 A 
ATOM     23  C28 FTA A   1       3.357  14.550  19.250  1.00  0.00     0.002 A 
ATOM     24  C30 FTA A   1       2.809  13.305  19.506  1.00  0.00     0.000 A 
ATOM     25  C29 FTA A   1       1.642  12.943  18.888  1.00  0.00     0.002 A 
ATOM     26  C27 FTA A   1       1.050  13.853  18.005  1.00  0.00     0.029 A 
ENDBRANCH  19  21
ENDBRANCH  16  19
ENDBRANCH  11  13
ENDBRANCH   1  11
TORSDOF 5
ENDMDL
MODEL 8
REMARK VINA RESULT:    -5.749      4.022      6.675
REMARK INTER + INTRA:          -8.643
REMARK INTER:                  -7.662
REMARK INTRA:                  -0.981
REMARK UNBOUND:                -1.214
REMARK  5 active torsions:
REMARK  status: ('A' for Active; 'I' for Inactive)
REMARK    1  A    between atoms: N8_1  and  C24_2 
REMARK    2  A    between atoms: N8_1  and  C7_8 
REMARK    3  A    between atoms: C2_13  and  N1_14 
REMARK    4  A    between atoms: N1_14  and  C17_15 
REMARK    5  A    between atoms: C14_16  and  C13_19 
ROOT
ATOM      1  C17 FTA A   1       4.880  16.055  16.584  1.00  0.00     0.142 C 
ATOM      2  C14 FTA A   1       5.395  16.575  17.716  1.00  0.00     0.158 C 
ATOM      3  C18 FTA A   1       4.522  16.945  18.809  1.00  0.00     0.069 C 
ATOM      4  N21 FTA A   1       3.696  17.251  19.583  1.00  0.00    -0.197 NA
ENDROOT
BRANCH   2   5
ATOM      5  C13 FTA A   1       6.861  16.749  17.836  1.00  0.00     0.197 A 
ATOM      6  N15 FTA A   1       7.834  16.010  17.167  1.00  0.00    -0.093 NA
ATOM      7  N19 FTA A   1       9.074  16.463  17.599  1.00  0.00    -0.231 N 
ATOM      8  N20 FTA A   1       8.889  17.473  18.532  1.00  0.00    -0.017 NA
ATOM      9  H15 FTA A   1       9.985  16.106  17.279  1.00  0.00     0.200 HD
ATOM     10  N16 FTA A   1       7.517  17.660  18.672  1.00  0.00    -0.090 NA
ENDBRANCH   2   5
BRANCH   1  11
ATOM     11  N1  FTA A   1       5.202  16.617  15.403  1.00  0.00    -0.389 N 
ATOM     12  H11 FTA A   1       5.214  17.646  15.353  1.00  0.00     0.159 HD
BRANCH  11  13
ATOM     13  C2  FTA A   1       5.528  15.898  14.221  1.00  0.00     0.028 A 
ATOM     14  C4  FTA A   1       4.866  16.116  13.015  1.00  0.00     0.031 A 
ATOM     15  C6  FTA A   1       5.072  15.223  11.955  1.00  0.00     0.031 A 
ATOM     16  C7  FTA A   1       5.917  14.122  12.069  1.00  0.00     0.032 A 
ATOM     17  C5  FTA A   1       6.587  13.934  13.265  1.00  0.00     0.031 A 
ATOM     18  C3  FTA A   1       6.386  14.800  14.332  1.00  0.00     0.031 A 
BRANCH  16  19
ATOM     19  N8  FTA A   1       5.980  13.096  11.091  1.00  0.00    -0.356 N 
ATOM     20  H1  FTA A   1       5.200  13.033  10.422  1.00  0.00     0.166 HD
BRANCH  19  21
ATOM     21  C24 FTA A   1       7.036  12.144  10.959  1.00  0.00     0.032 A 
ATOM     22  C26 FTA A   1       6.878  10.834  11.345  1.00  0.00     0.029 A 
ATOM     23  C28 FTA A   1       7.986  10.008  11.352  1.00  0.00     0.002 A 
ATOM     24  C30 FTA A   1       9.240  10.443  10.956  1.00  0.00     0.000 A 
ATOM     25  C29 FTA A   1       9.402  11.735  10.533  1.00  0.00     0.002 A 
ATOM     26  C27 FTA A   1       8.283  12.575  10.528  1.00  0.00     0.029 A 
ENDBRANCH  19  21
ENDBRANCH  16  19
ENDBRANCH  11  13
ENDBRANCH   1  11
TORSDOF 5
ENDMDL
MODEL 9
REMARK VINA RESULT:    -5.742      3.522      7.835
REMARK INTER + INTRA:          -8.635
REMARK INTER:                  -7.421
REMARK INTRA:                  -1.214
REMARK UNBOUND:                -1.214
REMARK  5 active torsions:
REMARK  status: ('A' for Active; 'I' for Inactive)
REMARK    1  A    between atoms: N8_1  and  C24_2 
REMARK    2  A    between atoms: N8_1  and  C7_8 
REMARK    3  A    between atoms: C2_13  and  N1_14 
REMARK    4  A    between atoms: N1_14  and  C17_15 
REMARK    5  A    between atoms: C14_16  and  C13_19 
ROOT
ATOM      1  C17 FTA A   1       6.892  14.786  13.000  1.00  0.00     0.142 C 
ATOM      2  C14 FTA A   1       6.463  14.143  11.896  1.00  0.00     0.158 C 
ATOM      3  C18 FTA A   1       7.416  13.647  10.927  1.00  0.00     0.069 C 
ATOM      4  N21 FTA A   1       8.292  13.354  10.205  1.00  0.00    -0.197 NA
ENDROOT
BRANCH   2   5
ATOM      5  C13 FTA A   1       5.011  13.934  11.693  1.00  0.00     0.197 A 
ATOM      6  N15 FTA A   1       4.282  12.807  12.066  1.00  0.00    -0.093 NA
ATOM      7  N19 FTA A   1       2.971  13.002  11.652  1.00  0.00    -0.231 N 
ATOM      8  N20 FTA A   1       2.870  14.234  11.023  1.00  0.00    -0.017 NA
ATOM      9  H15 FTA A   1       2.196  12.337  11.789  1.00  0.00     0.200 HD
ATOM     10  N16 FTA A   1       4.132  14.819  11.057  1.00  0.00    -0.090 NA
ENDBRANCH   2   5
BRANCH   1  11
ATOM     11  N1  FTA A   1       6.383  16.000  13.286  1.00  0.00    -0.389 N 
ATOM     12  H11 FTA A   1       6.590  16.768  12.632  1.00  0.00     0.159 HD
BRANCH  11  13
ATOM     13  C2  FTA A   1       5.582  16.301  14.422  1.00  0.00     0.028 A 
ATOM     14  C4  FTA A   1       6.017  16.056  15.722  1.00  0.00     0.031 A 
ATOM     15  C6  FTA A   1       5.100  16.157  16.776  1.00  0.00     0.031 A 
ATOM     16  C7  FTA A   1       3.765  16.493  16.566  1.00  0.00     0.032 A 
ATOM     17  C5  FTA A   1       3.354  16.758  15.272  1.00  0.00     0.031 A 
ATOM     18  C3  FTA A   1       4.245  16.649  14.211  1.00  0.00     0.031 A 
BRANCH  16  19
ATOM     19  N8  FTA A   1       2.778  16.398  17.581  1.00  0.00    -0.356 N 
ATOM     20  H1  FTA A   1       2.531  17.263  18.082  1.00  0.00     0.166 HD
BRANCH  19  21
ATOM     21  C24 FTA A   1       2.100  15.201  17.964  1.00  0.00     0.032 A 
ATOM     22  C26 FTA A   1       2.682  14.280  18.801  1.00  0.00     0.029 A 
ATOM     23  C28 FTA A   1       2.047  13.067  18.995  1.00  0.00     0.002 A 
ATOM     24  C30 FTA A   1       0.834  12.761  18.403  1.00  0.00     0.000 A 
ATOM     25  C29 FTA A   1       0.225  13.686  17.597  1.00  0.00     0.002 A 
ATOM     26  C27 FTA A   1       0.867  14.913  17.396  1.00  0.00     0.029 A 
ENDBRANCH  19  21
ENDBRANCH  16  19
ENDBRANCH  11  13
ENDBRANCH   1  11
TORSDOF 5
ENDMDL
