MODEL 1
REMARK VINA RESULT:    -8.320      0.000      0.000
REMARK INTER + INTRA:         -14.238
REMARK INTER:                 -13.219
REMARK INTRA:                  -1.019
REMARK UNBOUND:                -1.540
REMARK  10 active torsions:
REMARK  status: ('A' for Active; 'I' for Inactive)
REMARK    1  A    between atoms: N_1  and  C_5 
REMARK    2  A    between atoms: C_5  and  C_6 
REMARK    3  A    between atoms: C_6  and  O_7 
REMARK    4  A    between atoms: O_7  and  C_8 
REMARK    5  A    between atoms: C_8  and  C_9 
REMARK    6  A    between atoms: C_14  and  N_15 
REMARK       I    between atoms: N_15  and  C_17 
REMARK    7  A    between atoms: C_17  and  C_19 
REMARK    8  A    between atoms: C_21  and  O_22 
REMARK    9  A    between atoms: C_29  and  C_30 
REMARK   10  A    between atoms: C_30  and  C_31 
ROOT
HETATM    1  C   UNL     1       8.628  10.821  23.353  0.00  0.00     0.066 C 
HETATM    2  C   UNL     1       8.520  11.845  24.318  0.00  0.00     0.035 C 
HETATM    3  C   UNL     1       9.883  10.192  23.214  0.00  0.00     0.083 C 
HETATM    4  C   UNL     1      11.011  10.602  23.939  0.00  0.00     0.069 C 
HETATM    5  C   UNL     1      10.868  11.729  24.750  0.00  0.00     0.065 C 
HETATM    6  C   UNL     1       9.666  12.400  24.921  0.00  0.00     0.020 C 
HETATM    7  N   UNL     1      11.762  12.409  25.539  0.00  0.00    -0.277 N 
HETATM    8  H   UNL     1      12.737  12.182  25.701  0.00  0.00     0.189 HD
HETATM    9  N   UNL     1      11.260  13.513  26.114  0.00  0.00    -0.178 NA
HETATM   10  C   UNL     1       9.986  13.571  25.686  0.00  0.00     0.071 C 
ENDROOT
BRANCH   1  11
HETATM   11  C   UNL     1       7.490  10.410  22.433  0.00  0.00     0.260 C 
HETATM   12  N   UNL     1       7.287  11.021  21.153  0.00  0.00    -0.318 N 
HETATM   13  C   UNL     1       8.135  12.122  20.707  0.00  0.00     0.159 C 
HETATM   14  O   UNL     1       6.847   9.426  22.825  0.00  0.00    -0.267 OA
BRANCH  12  15
HETATM   15  C   UNL     1       6.262  10.564  20.220  0.00  0.00     0.037 A 
HETATM   16  C   UNL     1       5.579  11.475  19.386  0.00  0.00     0.030 A 
HETATM   17  C   UNL     1       4.657  11.064  18.411  0.00  0.00     0.011 A 
HETATM   18  C   UNL     1       4.399   9.713  18.226  0.00  0.00    -0.035 A 
HETATM   19  C   UNL     1       4.990   8.793  19.091  0.00  0.00     0.011 A 
HETATM   20  C   UNL     1       5.904   9.214  20.070  0.00  0.00     0.030 A 
BRANCH  18  21
HETATM   21  C   UNL     1       3.615   9.278  17.018  0.00  0.00     0.206 C 
BRANCH  21  22
HETATM   22  O   UNL     1       2.561   8.374  17.424  0.00  0.00    -0.385 OA
BRANCH  22  23
HETATM   23  C   UNL     1       2.367   7.310  16.478  0.00  0.00     0.195 C 
BRANCH  23  24
HETATM   24  C   UNL     1       3.732   6.740  16.111  0.00  0.00     0.255 C 
BRANCH  24  25
HETATM   25  N   UNL     1       3.672   6.194  14.725  0.00  0.00    -0.077 N 
HETATM   26  H   UNL     1       4.227   6.813  14.114  0.00  0.00     0.274 HD
HETATM   27  H   UNL     1       4.093   5.259  14.664  0.00  0.00     0.274 HD
HETATM   28  H   UNL     1       2.712   6.150  14.365  0.00  0.00     0.274 HD
ENDBRANCH  24  25
ENDBRANCH  23  24
ENDBRANCH  22  23
ENDBRANCH  21  22
ENDBRANCH  18  21
ENDBRANCH  12  15
ENDBRANCH   1  11
BRANCH   3  29
HETATM   29  O   UNL     1      10.103   9.130  22.368  0.00  0.00    -0.360 OA
HETATM   30  H   UNL     1      10.847   8.603  22.734  0.00  0.00     0.217 HD
ENDBRANCH   3  29
BRANCH  10  31
HETATM   31  C   UNL     1       9.138  14.783  26.028  0.00  0.00     0.100 C 
BRANCH  31  32
HETATM   32  C   UNL     1       8.112  15.072  24.923  0.00  0.00    -0.052 A 
HETATM   33  C   UNL     1       8.480  15.298  23.588  0.00  0.00     0.007 A 
HETATM   34  C   UNL     1       7.532  15.548  22.595  0.00  0.00     0.001 A 
HETATM   35  C   UNL     1       6.190  15.673  22.922  0.00  0.00     0.007 A 
HETATM   36  C   UNL     1       5.784  15.591  24.258  0.00  0.00    -0.061 A 
HETATM   37  C   UNL     1       6.740  15.252  25.244  0.00  0.00     0.014 A 
HETATM   38  C   UNL     1       4.345  15.886  24.584  0.00  0.00     0.048 C 
ENDBRANCH  31  32
ENDBRANCH  10  31
TORSDOF 10
ENDMDL
MODEL 2
REMARK VINA RESULT:    -8.056      4.346      6.020
REMARK INTER + INTRA:         -13.834
REMARK INTER:                 -12.717
REMARK INTRA:                  -1.117
REMARK UNBOUND:                -1.540
REMARK  10 active torsions:
REMARK  status: ('A' for Active; 'I' for Inactive)
REMARK    1  A    between atoms: N_1  and  C_5 
REMARK    2  A    between atoms: C_5  and  C_6 
REMARK    3  A    between atoms: C_6  and  O_7 
REMARK    4  A    between atoms: O_7  and  C_8 
REMARK    5  A    between atoms: C_8  and  C_9 
REMARK    6  A    between atoms: C_14  and  N_15 
REMARK       I    between atoms: N_15  and  C_17 
REMARK    7  A    between atoms: C_17  and  C_19 
REMARK    8  A    between atoms: C_21  and  O_22 
REMARK    9  A    between atoms: C_29  and  C_30 
REMARK   10  A    between atoms: C_30  and  C_31 
ROOT
HETATM    1  C   UNL     1       7.907  12.600  22.578  0.00  0.00     0.066 C 
HETATM    2  C   UNL     1       8.943  13.348  23.176  0.00  0.00     0.035 C 
HETATM    3  C   UNL     1       8.261  11.732  21.525  0.00  0.00     0.083 C 
HETATM    4  C   UNL     1       9.568  11.656  21.023  0.00  0.00     0.069 C 
HETATM    5  C   UNL     1      10.503  12.546  21.552  0.00  0.00     0.065 C 
HETATM    6  C   UNL     1      10.218  13.433  22.580  0.00  0.00     0.020 C 
HETATM    7  N   UNL     1      11.826  12.765  21.261  0.00  0.00    -0.277 N 
HETATM    8  H   UNL     1      12.399  12.269  20.586  0.00  0.00     0.189 HD
HETATM    9  N   UNL     1      12.378  13.782  21.940  0.00  0.00    -0.178 NA
HETATM   10  C   UNL     1      11.383  14.260  22.708  0.00  0.00     0.071 C 
ENDROOT
BRANCH   1  11
HETATM   11  C   UNL     1       6.445  12.727  22.972  0.00  0.00     0.260 C 
HETATM   12  N   UNL     1       5.765  13.988  22.982  0.00  0.00    -0.318 N 
HETATM   13  C   UNL     1       6.478  15.225  22.677  0.00  0.00     0.159 C 
HETATM   14  O   UNL     1       5.869  11.644  23.151  0.00  0.00    -0.267 OA
BRANCH  12  15
HETATM   15  C   UNL     1       4.337  14.107  23.258  0.00  0.00     0.037 A 
HETATM   16  C   UNL     1       3.377  13.636  22.337  0.00  0.00     0.030 A 
HETATM   17  C   UNL     1       2.000  13.647  22.608  0.00  0.00     0.011 A 
HETATM   18  C   UNL     1       1.536  14.117  23.828  0.00  0.00    -0.035 A 
HETATM   19  C   UNL     1       2.450  14.670  24.724  0.00  0.00     0.011 A 
HETATM   20  C   UNL     1       3.825  14.665  24.441  0.00  0.00     0.030 A 
BRANCH  18  21
HETATM   21  C   UNL     1       0.098  13.884  24.202  0.00  0.00     0.206 C 
BRANCH  21  22
HETATM   22  O   UNL     1      -0.374  12.667  23.577  0.00  0.00    -0.385 OA
BRANCH  22  23
HETATM   23  C   UNL     1      -1.808  12.574  23.590  0.00  0.00     0.195 C 
BRANCH  23  24
HETATM   24  C   UNL     1      -2.203  11.375  24.444  0.00  0.00     0.255 C 
BRANCH  24  25
HETATM   25  N   UNL     1      -3.675  11.412  24.679  0.00  0.00    -0.077 N 
HETATM   26  H   UNL     1      -4.112  10.687  24.089  0.00  0.00     0.274 HD
HETATM   27  H   UNL     1      -3.912  11.186  25.653  0.00  0.00     0.274 HD
HETATM   28  H   UNL     1      -4.085  12.323  24.441  0.00  0.00     0.274 HD
ENDBRANCH  24  25
ENDBRANCH  23  24
ENDBRANCH  22  23
ENDBRANCH  21  22
ENDBRANCH  18  21
ENDBRANCH  12  15
ENDBRANCH   1  11
BRANCH   3  29
HETATM   29  O   UNL     1       7.363  10.891  20.909  0.00  0.00    -0.360 OA
HETATM   30  H   UNL     1       7.056  11.330  20.085  0.00  0.00     0.217 HD
ENDBRANCH   3  29
BRANCH  10  31
HETATM   31  C   UNL     1      11.607  15.523  23.520  0.00  0.00     0.100 C 
BRANCH  31  32
HETATM   32  C   UNL     1      11.635  15.217  25.025  0.00  0.00    -0.052 A 
HETATM   33  C   UNL     1      12.617  14.406  25.614  0.00  0.00     0.007 A 
HETATM   34  C   UNL     1      12.632  14.148  26.986  0.00  0.00     0.001 A 
HETATM   35  C   UNL     1      11.611  14.617  27.799  0.00  0.00     0.007 A 
HETATM   36  C   UNL     1      10.537  15.318  27.241  0.00  0.00    -0.061 A 
HETATM   37  C   UNL     1      10.575  15.647  25.866  0.00  0.00     0.014 A 
HETATM   38  C   UNL     1       9.379  15.673  28.134  0.00  0.00     0.048 C 
ENDBRANCH  31  32
ENDBRANCH  10  31
TORSDOF 10
ENDMDL
MODEL 3
REMARK VINA RESULT:    -7.854      4.352      6.321
REMARK INTER + INTRA:         -13.527
REMARK INTER:                 -12.518
REMARK INTRA:                  -1.009
REMARK UNBOUND:                -1.540
REMARK  10 active torsions:
REMARK  status: ('A' for Active; 'I' for Inactive)
REMARK    1  A    between atoms: N_1  and  C_5 
REMARK    2  A    between atoms: C_5  and  C_6 
REMARK    3  A    between atoms: C_6  and  O_7 
REMARK    4  A    between atoms: O_7  and  C_8 
REMARK    5  A    between atoms: C_8  and  C_9 
REMARK    6  A    between atoms: C_14  and  N_15 
REMARK       I    between atoms: N_15  and  C_17 
REMARK    7  A    between atoms: C_17  and  C_19 
REMARK    8  A    between atoms: C_21  and  O_22 
REMARK    9  A    between atoms: C_29  and  C_30 
REMARK   10  A    between atoms: C_30  and  C_31 
ROOT
HETATM    1  C   UNL     1       8.517  14.595  24.990  0.00  0.00     0.066 C 
HETATM    2  C   UNL     1       9.326  14.322  23.866  0.00  0.00     0.035 C 
HETATM    3  C   UNL     1       9.153  15.115  26.136  0.00  0.00     0.083 C 
HETATM    4  C   UNL     1      10.543  15.291  26.206  0.00  0.00     0.069 C 
HETATM    5  C   UNL     1      11.295  14.843  25.119  0.00  0.00     0.065 C 
HETATM    6  C   UNL     1      10.732  14.312  23.967  0.00  0.00     0.020 C 
HETATM    7  N   UNL     1      12.647  14.821  24.887  0.00  0.00    -0.277 N 
HETATM    8  H   UNL     1      13.381  15.172  25.493  0.00  0.00     0.189 HD
HETATM    9  N   UNL     1      12.999  14.227  23.736  0.00  0.00    -0.178 NA
HETATM   10  C   UNL     1      11.836  13.836  23.184  0.00  0.00     0.071 C 
ENDROOT
BRANCH   1  11
HETATM   11  C   UNL     1       7.026  14.304  25.041  0.00  0.00     0.260 C 
HETATM   12  N   UNL     1       6.099  14.914  24.135  0.00  0.00    -0.318 N 
HETATM   13  C   UNL     1       6.548  15.904  23.160  0.00  0.00     0.159 C 
HETATM   14  O   UNL     1       6.709  13.406  25.834  0.00  0.00    -0.267 OA
BRANCH  12  15
HETATM   15  C   UNL     1       4.682  14.563  24.108  0.00  0.00     0.037 A 
HETATM   16  C   UNL     1       3.793  15.054  25.088  0.00  0.00     0.030 A 
HETATM   17  C   UNL     1       2.411  14.817  25.041  0.00  0.00     0.011 A 
HETATM   18  C   UNL     1       1.866  14.089  23.993  0.00  0.00    -0.035 A 
HETATM   19  C   UNL     1       2.726  13.516  23.057  0.00  0.00     0.011 A 
HETATM   20  C   UNL     1       4.110  13.750  23.116  0.00  0.00     0.030 A 
BRANCH  18  21
HETATM   21  C   UNL     1       0.372  14.064  23.819  0.00  0.00     0.206 C 
BRANCH  21  22
HETATM   22  O   UNL     1      -0.035  12.773  23.308  0.00  0.00    -0.385 OA
BRANCH  22  23
HETATM   23  C   UNL     1      -1.272  12.329  23.888  0.00  0.00     0.195 C 
BRANCH  23  24
HETATM   24  C   UNL     1      -2.388  12.560  22.875  0.00  0.00     0.255 C 
BRANCH  24  25
HETATM   25  N   UNL     1      -3.694  12.227  23.511  0.00  0.00    -0.077 N 
HETATM   26  H   UNL     1      -3.756  11.200  23.595  0.00  0.00     0.274 HD
HETATM   27  H   UNL     1      -3.764  12.607  24.463  0.00  0.00     0.274 HD
HETATM   28  H   UNL     1      -4.493  12.562  22.960  0.00  0.00     0.274 HD
ENDBRANCH  24  25
ENDBRANCH  23  24
ENDBRANCH  22  23
ENDBRANCH  21  22
ENDBRANCH  18  21
ENDBRANCH  12  15
ENDBRANCH   1  11
BRANCH   3  29
HETATM   29  O   UNL     1       8.472  15.495  27.268  0.00  0.00    -0.360 OA
HETATM   30  H   UNL     1       9.114  15.523  28.011  0.00  0.00     0.217 HD
ENDBRANCH   3  29
BRANCH  10  31
HETATM   31  C   UNL     1      11.855  12.993  21.922  0.00  0.00     0.100 C 
BRANCH  31  32
HETATM   32  C   UNL     1      10.477  12.372  21.649  0.00  0.00    -0.052 A 
HETATM   33  C   UNL     1       9.599  12.875  20.678  0.00  0.00     0.007 A 
HETATM   34  C   UNL     1       8.355  12.290  20.436  0.00  0.00     0.001 A 
HETATM   35  C   UNL     1       7.910  11.238  21.223  0.00  0.00     0.007 A 
HETATM   36  C   UNL     1       8.690  10.784  22.292  0.00  0.00    -0.061 A 
HETATM   37  C   UNL     1       9.983  11.326  22.474  0.00  0.00     0.014 A 
HETATM   38  C   UNL     1       8.102   9.749  23.213  0.00  0.00     0.048 C 
ENDBRANCH  31  32
ENDBRANCH  10  31
TORSDOF 10
ENDMDL
MODEL 4
REMARK VINA RESULT:    -7.843      2.241      3.520
REMARK INTER + INTRA:         -13.509
REMARK INTER:                 -12.115
REMARK INTRA:                  -1.393
REMARK UNBOUND:                -1.540
REMARK  10 active torsions:
REMARK  status: ('A' for Active; 'I' for Inactive)
REMARK    1  A    between atoms: N_1  and  C_5 
REMARK    2  A    between atoms: C_5  and  C_6 
REMARK    3  A    between atoms: C_6  and  O_7 
REMARK    4  A    between atoms: O_7  and  C_8 
REMARK    5  A    between atoms: C_8  and  C_9 
REMARK    6  A    between atoms: C_14  and  N_15 
REMARK       I    between atoms: N_15  and  C_17 
REMARK    7  A    between atoms: C_17  and  C_19 
REMARK    8  A    between atoms: C_21  and  O_22 
REMARK    9  A    between atoms: C_29  and  C_30 
REMARK   10  A    between atoms: C_30  and  C_31 
ROOT
HETATM    1  C   UNL     1       7.170  11.819  21.711  0.00  0.00     0.066 C 
HETATM    2  C   UNL     1       6.377  12.846  22.268  0.00  0.00     0.035 C 
HETATM    3  C   UNL     1       8.367  11.491  22.379  0.00  0.00     0.083 C 
HETATM    4  C   UNL     1       8.812  12.194  23.508  0.00  0.00     0.069 C 
HETATM    5  C   UNL     1       8.062  13.304  23.901  0.00  0.00     0.065 C 
HETATM    6  C   UNL     1       6.881  13.686  23.280  0.00  0.00     0.020 C 
HETATM    7  N   UNL     1       8.237  14.217  24.909  0.00  0.00    -0.277 N 
HETATM    8  H   UNL     1       8.975  14.233  25.605  0.00  0.00     0.189 HD
HETATM    9  N   UNL     1       7.331  15.207  24.919  0.00  0.00    -0.178 NA
HETATM   10  C   UNL     1       6.525  14.943  23.875  0.00  0.00     0.071 C 
ENDROOT
BRANCH   1  11
HETATM   11  C   UNL     1       6.826  11.102  20.415  0.00  0.00     0.260 C 
HETATM   12  N   UNL     1       5.752  10.158  20.328  0.00  0.00    -0.318 N 
HETATM   13  C   UNL     1       4.980   9.792  21.512  0.00  0.00     0.159 C 
HETATM   14  O   UNL     1       7.461  11.501  19.429  0.00  0.00    -0.267 OA
BRANCH  12  15
HETATM   15  C   UNL     1       5.348   9.544  19.068  0.00  0.00     0.037 A 
HETATM   16  C   UNL     1       5.649   8.193  18.788  0.00  0.00     0.030 A 
HETATM   17  C   UNL     1       5.196   7.542  17.631  0.00  0.00     0.011 A 
HETATM   18  C   UNL     1       4.406   8.222  16.715  0.00  0.00    -0.035 A 
HETATM   19  C   UNL     1       4.164   9.581  16.917  0.00  0.00     0.011 A 
HETATM   20  C   UNL     1       4.629  10.227  18.074  0.00  0.00     0.030 A 
BRANCH  18  21
HETATM   21  C   UNL     1       3.720   7.447  15.623  0.00  0.00     0.206 C 
BRANCH  21  22
HETATM   22  O   UNL     1       2.327   7.258  15.965  0.00  0.00    -0.385 OA
BRANCH  22  23
HETATM   23  C   UNL     1       1.951   5.871  15.955  0.00  0.00     0.195 C 
BRANCH  23  24
HETATM   24  C   UNL     1       1.604   5.478  14.523  0.00  0.00     0.255 C 
BRANCH  24  25
HETATM   25  N   UNL     1       0.407   6.252  14.087  0.00  0.00    -0.077 N 
HETATM   26  H   UNL     1      -0.431   5.677  14.272  0.00  0.00     0.274 HD
HETATM   27  H   UNL     1       0.296   7.120  14.626  0.00  0.00     0.274 HD
HETATM   28  H   UNL     1       0.434   6.484  13.088  0.00  0.00     0.274 HD
ENDBRANCH  24  25
ENDBRANCH  23  24
ENDBRANCH  22  23
ENDBRANCH  21  22
ENDBRANCH  18  21
ENDBRANCH  12  15
ENDBRANCH   1  11
BRANCH   3  29
HETATM   29  O   UNL     1       9.190  10.461  21.987  0.00  0.00    -0.360 OA
HETATM   30  H   UNL     1       9.684  10.152  22.778  0.00  0.00     0.217 HD
ENDBRANCH   3  29
BRANCH  10  31
HETATM   31  C   UNL     1       5.451  15.944  23.488  0.00  0.00     0.100 C 
BRANCH  31  32
HETATM   32  C   UNL     1       4.052  15.424  23.850  0.00  0.00    -0.052 A 
HETATM   33  C   UNL     1       3.591  15.350  25.173  0.00  0.00     0.007 A 
HETATM   34  C   UNL     1       2.312  14.885  25.482  0.00  0.00     0.001 A 
HETATM   35  C   UNL     1       1.485  14.391  24.484  0.00  0.00     0.007 A 
HETATM   36  C   UNL     1       1.946  14.317  23.165  0.00  0.00    -0.061 A 
HETATM   37  C   UNL     1       3.210  14.869  22.850  0.00  0.00     0.014 A 
HETATM   38  C   UNL     1       1.078  13.632  22.145  0.00  0.00     0.048 C 
ENDBRANCH  31  32
ENDBRANCH  10  31
TORSDOF 10
ENDMDL
MODEL 5
REMARK VINA RESULT:    -7.680      2.679      4.312
REMARK INTER + INTRA:         -13.261
REMARK INTER:                 -11.980
REMARK INTRA:                  -1.281
REMARK UNBOUND:                -1.540
REMARK  10 active torsions:
REMARK  status: ('A' for Active; 'I' for Inactive)
REMARK    1  A    between atoms: N_1  and  C_5 
REMARK    2  A    between atoms: C_5  and  C_6 
REMARK    3  A    between atoms: C_6  and  O_7 
REMARK    4  A    between atoms: O_7  and  C_8 
REMARK    5  A    between atoms: C_8  and  C_9 
REMARK    6  A    between atoms: C_14  and  N_15 
REMARK       I    between atoms: N_15  and  C_17 
REMARK    7  A    between atoms: C_17  and  C_19 
REMARK    8  A    between atoms: C_21  and  O_22 
REMARK    9  A    between atoms: C_29  and  C_30 
REMARK   10  A    between atoms: C_30  and  C_31 
ROOT
HETATM    1  C   UNL     1       5.012  12.640  22.135  0.00  0.00     0.066 C 
HETATM    2  C   UNL     1       5.870  13.760  22.081  0.00  0.00     0.035 C 
HETATM    3  C   UNL     1       4.613  12.192  23.411  0.00  0.00     0.083 C 
HETATM    4  C   UNL     1       5.097  12.769  24.594  0.00  0.00     0.069 C 
HETATM    5  C   UNL     1       6.070  13.760  24.464  0.00  0.00     0.065 C 
HETATM    6  C   UNL     1       6.515  14.239  23.239  0.00  0.00     0.020 C 
HETATM    7  N   UNL     1       6.772  14.482  25.396  0.00  0.00    -0.277 N 
HETATM    8  H   UNL     1       6.682  14.438  26.405  0.00  0.00     0.189 HD
HETATM    9  N   UNL     1       7.698  15.303  24.874  0.00  0.00    -0.178 NA
HETATM   10  C   UNL     1       7.610  15.114  23.545  0.00  0.00     0.071 C 
ENDROOT
BRANCH   1  11
HETATM   11  C   UNL     1       4.553  11.875  20.905  0.00  0.00     0.260 C 
HETATM   12  N   UNL     1       5.348  10.844  20.308  0.00  0.00    -0.318 N 
HETATM   13  C   UNL     1       6.678  10.532  20.824  0.00  0.00     0.159 C 
HETATM   14  O   UNL     1       3.392  12.127  20.552  0.00  0.00    -0.267 OA
BRANCH  12  15
HETATM   15  C   UNL     1       4.872  10.034  19.191  0.00  0.00     0.037 A 
HETATM   16  C   UNL     1       4.600   8.659  19.354  0.00  0.00     0.030 A 
HETATM   17  C   UNL     1       4.052   7.870  18.331  0.00  0.00     0.011 A 
HETATM   18  C   UNL     1       3.740   8.441  17.106  0.00  0.00    -0.035 A 
HETATM   19  C   UNL     1       4.077   9.775  16.882  0.00  0.00     0.011 A 
HETATM   20  C   UNL     1       4.634  10.555  17.909  0.00  0.00     0.030 A 
BRANCH  18  21
HETATM   21  C   UNL     1       2.922   7.652  16.119  0.00  0.00     0.206 C 
BRANCH  21  22
HETATM   22  O   UNL     1       3.759   6.661  15.479  0.00  0.00    -0.385 OA
BRANCH  22  23
HETATM   23  C   UNL     1       3.007   5.796  14.612  0.00  0.00     0.195 C 
BRANCH  23  24
HETATM   24  C   UNL     1       1.587   5.688  15.157  0.00  0.00     0.255 C 
BRANCH  24  25
HETATM   25  N   UNL     1       0.624   5.993  14.061  0.00  0.00    -0.077 N 
HETATM   26  H   UNL     1       0.548   7.019  13.978  0.00  0.00     0.274 HD
HETATM   27  H   UNL     1       0.957   5.645  13.153  0.00  0.00     0.274 HD
HETATM   28  H   UNL     1      -0.309   5.607  14.243  0.00  0.00     0.274 HD
ENDBRANCH  24  25
ENDBRANCH  23  24
ENDBRANCH  22  23
ENDBRANCH  21  22
ENDBRANCH  18  21
ENDBRANCH  12  15
ENDBRANCH   1  11
BRANCH   3  29
HETATM   29  O   UNL     1       3.720  11.163  23.601  0.00  0.00    -0.360 OA
HETATM   30  H   UNL     1       2.948  11.521  24.091  0.00  0.00     0.217 HD
ENDBRANCH   3  29
BRANCH  10  31
HETATM   31  C   UNL     1       8.618  15.784  22.629  0.00  0.00     0.100 C 
BRANCH  31  32
HETATM   32  C   UNL     1       9.939  15.002  22.592  0.00  0.00    -0.052 A 
HETATM   33  C   UNL     1      11.175  15.589  22.902  0.00  0.00     0.007 A 
HETATM   34  C   UNL     1      12.365  14.859  22.874  0.00  0.00     0.001 A 
HETATM   35  C   UNL     1      12.368  13.540  22.445  0.00  0.00     0.007 A 
HETATM   36  C   UNL     1      11.184  12.946  21.996  0.00  0.00    -0.061 A 
HETATM   37  C   UNL     1       9.972  13.666  22.110  0.00  0.00     0.014 A 
HETATM   38  C   UNL     1      11.262  11.569  21.395  0.00  0.00     0.048 C 
ENDBRANCH  31  32
ENDBRANCH  10  31
TORSDOF 10
ENDMDL
MODEL 6
REMARK VINA RESULT:    -7.566      2.708      4.298
REMARK INTER + INTRA:         -13.087
REMARK INTER:                 -11.956
REMARK INTRA:                  -1.131
REMARK UNBOUND:                -1.540
REMARK  10 active torsions:
REMARK  status: ('A' for Active; 'I' for Inactive)
REMARK    1  A    between atoms: N_1  and  C_5 
REMARK    2  A    between atoms: C_5  and  C_6 
REMARK    3  A    between atoms: C_6  and  O_7 
REMARK    4  A    between atoms: O_7  and  C_8 
REMARK    5  A    between atoms: C_8  and  C_9 
REMARK    6  A    between atoms: C_14  and  N_15 
REMARK       I    between atoms: N_15  and  C_17 
REMARK    7  A    between atoms: C_17  and  C_19 
REMARK    8  A    between atoms: C_21  and  O_22 
REMARK    9  A    between atoms: C_29  and  C_30 
REMARK   10  A    between atoms: C_30  and  C_31 
ROOT
HETATM    1  C   UNL     1       5.077  12.626  22.117  0.00  0.00     0.066 C 
HETATM    2  C   UNL     1       5.950  13.734  22.065  0.00  0.00     0.035 C 
HETATM    3  C   UNL     1       4.665  12.185  23.391  0.00  0.00     0.083 C 
HETATM    4  C   UNL     1       5.150  12.760  24.576  0.00  0.00     0.069 C 
HETATM    5  C   UNL     1       6.136  13.738  24.449  0.00  0.00     0.065 C 
HETATM    6  C   UNL     1       6.594  14.208  23.225  0.00  0.00     0.020 C 
HETATM    7  N   UNL     1       6.842  14.454  25.383  0.00  0.00    -0.277 N 
HETATM    8  H   UNL     1       6.746  14.413  26.392  0.00  0.00     0.189 HD
HETATM    9  N   UNL     1       7.781  15.261  24.864  0.00  0.00    -0.178 NA
HETATM   10  C   UNL     1       7.698  15.070  23.535  0.00  0.00     0.071 C 
ENDROOT
BRANCH   1  11
HETATM   11  C   UNL     1       4.615  11.863  20.886  0.00  0.00     0.260 C 
HETATM   12  N   UNL     1       5.394  10.812  20.304  0.00  0.00    -0.318 N 
HETATM   13  C   UNL     1       6.711  10.474  20.836  0.00  0.00     0.159 C 
HETATM   14  O   UNL     1       3.464  12.138  20.519  0.00  0.00    -0.267 OA
BRANCH  12  15
HETATM   15  C   UNL     1       4.913  10.005  19.187  0.00  0.00     0.037 A 
HETATM   16  C   UNL     1       4.585   8.644  19.361  0.00  0.00     0.030 A 
HETATM   17  C   UNL     1       4.031   7.863  18.335  0.00  0.00     0.011 A 
HETATM   18  C   UNL     1       3.768   8.428  17.096  0.00  0.00    -0.035 A 
HETATM   19  C   UNL     1       4.161   9.746  16.864  0.00  0.00     0.011 A 
HETATM   20  C   UNL     1       4.724  10.518  17.893  0.00  0.00     0.030 A 
BRANCH  18  21
HETATM   21  C   UNL     1       2.944   7.658  16.101  0.00  0.00     0.206 C 
BRANCH  21  22
HETATM   22  O   UNL     1       3.801   6.770  15.345  0.00  0.00    -0.385 OA
BRANCH  22  23
HETATM   23  C   UNL     1       3.072   5.673  14.772  0.00  0.00     0.195 C 
BRANCH  23  24
HETATM   24  C   UNL     1       1.631   5.743  15.267  0.00  0.00     0.255 C 
BRANCH  24  25
HETATM   25  N   UNL     1       0.722   5.856  14.091  0.00  0.00    -0.077 N 
HETATM   26  H   UNL     1       0.031   6.596  14.291  0.00  0.00     0.274 HD
HETATM   27  H   UNL     1       1.227   6.142  13.243  0.00  0.00     0.274 HD
HETATM   28  H   UNL     1       0.222   4.980  13.899  0.00  0.00     0.274 HD
ENDBRANCH  24  25
ENDBRANCH  23  24
ENDBRANCH  22  23
ENDBRANCH  21  22
ENDBRANCH  18  21
ENDBRANCH  12  15
ENDBRANCH   1  11
BRANCH   3  29
HETATM   29  O   UNL     1       3.758  11.168  23.579  0.00  0.00    -0.360 OA
HETATM   30  H   UNL     1       4.159  10.341  23.234  0.00  0.00     0.217 HD
ENDBRANCH   3  29
BRANCH  10  31
HETATM   31  C   UNL     1       8.720  15.724  22.622  0.00  0.00     0.100 C 
BRANCH  31  32
HETATM   32  C   UNL     1      10.107  15.090  22.798  0.00  0.00    -0.052 A 
HETATM   33  C   UNL     1      10.468  13.877  22.194  0.00  0.00     0.007 A 
HETATM   34  C   UNL     1      11.738  13.322  22.356  0.00  0.00     0.001 A 
HETATM   35  C   UNL     1      12.660  13.916  23.206  0.00  0.00     0.007 A 
HETATM   36  C   UNL     1      12.306  15.055  23.937  0.00  0.00    -0.061 A 
HETATM   37  C   UNL     1      11.048  15.657  23.700  0.00  0.00     0.014 A 
HETATM   38  C   UNL     1      13.279  15.575  24.960  0.00  0.00     0.048 C 
ENDBRANCH  31  32
ENDBRANCH  10  31
TORSDOF 10
ENDMDL
MODEL 7
REMARK VINA RESULT:    -7.481      1.784      2.825
REMARK INTER + INTRA:         -12.957
REMARK INTER:                 -11.803
REMARK INTRA:                  -1.154
REMARK UNBOUND:                -1.540
REMARK  10 active torsions:
REMARK  status: ('A' for Active; 'I' for Inactive)
REMARK    1  A    between atoms: N_1  and  C_5 
REMARK    2  A    between atoms: C_5  and  C_6 
REMARK    3  A    between atoms: C_6  and  O_7 
REMARK    4  A    between atoms: O_7  and  C_8 
REMARK    5  A    between atoms: C_8  and  C_9 
REMARK    6  A    between atoms: C_14  and  N_15 
REMARK       I    between atoms: N_15  and  C_17 
REMARK    7  A    between atoms: C_17  and  C_19 
REMARK    8  A    between atoms: C_21  and  O_22 
REMARK    9  A    between atoms: C_29  and  C_30 
REMARK   10  A    between atoms: C_30  and  C_31 
ROOT
HETATM    1  C   UNL     1       6.955  10.503  21.990  0.00  0.00     0.066 C 
HETATM    2  C   UNL     1       6.767  11.839  22.406  0.00  0.00     0.035 C 
HETATM    3  C   UNL     1       8.057   9.807  22.528  0.00  0.00     0.083 C 
HETATM    4  C   UNL     1       8.986  10.418  23.382  0.00  0.00     0.069 C 
HETATM    5  C   UNL     1       8.829  11.785  23.615  0.00  0.00     0.065 C 
HETATM    6  C   UNL     1       7.774  12.531  23.108  0.00  0.00     0.020 C 
HETATM    7  N   UNL     1       9.569  12.680  24.346  0.00  0.00    -0.277 N 
HETATM    8  H   UNL     1      10.397  12.488  24.900  0.00  0.00     0.189 HD
HETATM    9  N   UNL     1       9.138  13.949  24.263  0.00  0.00    -0.178 NA
HETATM   10  C   UNL     1       8.074  13.894  23.442  0.00  0.00     0.071 C 
ENDROOT
BRANCH   1  11
HETATM   11  C   UNL     1       6.073   9.812  20.963  0.00  0.00     0.260 C 
HETATM   12  N   UNL     1       6.109  10.156  19.573  0.00  0.00    -0.318 N 
HETATM   13  C   UNL     1       6.955  11.244  19.093  0.00  0.00     0.159 C 
HETATM   14  O   UNL     1       5.430   8.852  21.409  0.00  0.00    -0.267 OA
BRANCH  12  15
HETATM   15  C   UNL     1       5.343   9.429  18.566  0.00  0.00     0.037 A 
HETATM   16  C   UNL     1       5.566   8.055  18.334  0.00  0.00     0.030 A 
HETATM   17  C   UNL     1       4.787   7.302  17.443  0.00  0.00     0.011 A 
HETATM   18  C   UNL     1       3.737   7.901  16.762  0.00  0.00    -0.035 A 
HETATM   19  C   UNL     1       3.544   9.275  16.901  0.00  0.00     0.011 A 
HETATM   20  C   UNL     1       4.335  10.023  17.788  0.00  0.00     0.030 A 
BRANCH  18  21
HETATM   21  C   UNL     1       2.759   7.033  16.017  0.00  0.00     0.206 C 
BRANCH  21  22
HETATM   22  O   UNL     1       3.479   6.039  15.251  0.00  0.00    -0.385 OA
BRANCH  22  23
HETATM   23  C   UNL     1       2.677   5.486  14.194  0.00  0.00     0.195 C 
BRANCH  23  24
HETATM   24  C   UNL     1       1.269   5.255  14.731  0.00  0.00     0.255 C 
BRANCH  24  25
HETATM   25  N   UNL     1       0.287   5.875  13.797  0.00  0.00    -0.077 N 
HETATM   26  H   UNL     1      -0.648   5.500  14.020  0.00  0.00     0.274 HD
HETATM   27  H   UNL     1       0.235   6.894  13.919  0.00  0.00     0.274 HD
HETATM   28  H   UNL     1       0.500   5.669  12.814  0.00  0.00     0.274 HD
ENDBRANCH  24  25
ENDBRANCH  23  24
ENDBRANCH  22  23
ENDBRANCH  21  22
ENDBRANCH  18  21
ENDBRANCH  12  15
ENDBRANCH   1  11
BRANCH   3  29
HETATM   29  O   UNL     1       8.309   8.480  22.266  0.00  0.00    -0.360 OA
HETATM   30  H   UNL     1       7.470   7.984  22.390  0.00  0.00     0.217 HD
ENDBRANCH   3  29
BRANCH  10  31
HETATM   31  C   UNL     1       7.405  15.183  23.000  0.00  0.00     0.100 C 
BRANCH  31  32
HETATM   32  C   UNL     1       5.981  15.291  23.566  0.00  0.00    -0.052 A 
HETATM   33  C   UNL     1       5.707  15.845  24.825  0.00  0.00     0.007 A 
HETATM   34  C   UNL     1       4.405  15.945  25.318  0.00  0.00     0.001 A 
HETATM   35  C   UNL     1       3.342  15.409  24.605  0.00  0.00     0.007 A 
HETATM   36  C   UNL     1       3.576  14.727  23.406  0.00  0.00    -0.061 A 
HETATM   37  C   UNL     1       4.886  14.707  22.875  0.00  0.00     0.014 A 
HETATM   38  C   UNL     1       2.417  14.029  22.747  0.00  0.00     0.048 C 
ENDBRANCH  31  32
ENDBRANCH  10  31
TORSDOF 10
ENDMDL
MODEL 8
REMARK VINA RESULT:    -7.378      3.417      4.074
REMARK INTER + INTRA:         -12.800
REMARK INTER:                 -11.459
REMARK INTRA:                  -1.341
REMARK UNBOUND:                -1.540
REMARK  10 active torsions:
REMARK  status: ('A' for Active; 'I' for Inactive)
REMARK    1  A    between atoms: N_1  and  C_5 
REMARK    2  A    between atoms: C_5  and  C_6 
REMARK    3  A    between atoms: C_6  and  O_7 
REMARK    4  A    between atoms: O_7  and  C_8 
REMARK    5  A    between atoms: C_8  and  C_9 
REMARK    6  A    between atoms: C_14  and  N_15 
REMARK       I    between atoms: N_15  and  C_17 
REMARK    7  A    between atoms: C_17  and  C_19 
REMARK    8  A    between atoms: C_21  and  O_22 
REMARK    9  A    between atoms: C_29  and  C_30 
REMARK   10  A    between atoms: C_30  and  C_31 
ROOT
HETATM    1  C   UNL     1      10.000  10.875  23.241  0.00  0.00     0.066 C 
HETATM    2  C   UNL     1       9.772  12.066  23.963  0.00  0.00     0.035 C 
HETATM    3  C   UNL     1      10.908  10.936  22.163  0.00  0.00     0.083 C 
HETATM    4  C   UNL     1      11.512  12.135  21.758  0.00  0.00     0.069 C 
HETATM    5  C   UNL     1      11.110  13.300  22.413  0.00  0.00     0.065 C 
HETATM    6  C   UNL     1      10.214  13.311  23.473  0.00  0.00     0.020 C 
HETATM    7  N   UNL     1      11.458  14.615  22.238  0.00  0.00    -0.277 N 
HETATM    8  H   UNL     1      12.131  14.992  21.578  0.00  0.00     0.189 HD
HETATM    9  N   UNL     1      10.785  15.473  23.021  0.00  0.00    -0.178 NA
HETATM   10  C   UNL     1       9.955  14.697  23.741  0.00  0.00     0.071 C 
ENDROOT
BRANCH   1  11
HETATM   11  C   UNL     1       9.282   9.567  23.530  0.00  0.00     0.260 C 
HETATM   12  N   UNL     1       7.966   9.295  23.036  0.00  0.00    -0.318 N 
HETATM   13  C   UNL     1       7.226  10.304  22.284  0.00  0.00     0.159 C 
HETATM   14  O   UNL     1       9.979   8.721  24.109  0.00  0.00    -0.267 OA
BRANCH  12  15
HETATM   15  C   UNL     1       7.310   8.005  23.221  0.00  0.00     0.037 A 
HETATM   16  C   UNL     1       6.255   7.851  24.146  0.00  0.00     0.030 A 
HETATM   17  C   UNL     1       5.539   6.652  24.283  0.00  0.00     0.011 A 
HETATM   18  C   UNL     1       5.846   5.564  23.479  0.00  0.00    -0.035 A 
HETATM   19  C   UNL     1       6.938   5.654  22.617  0.00  0.00     0.011 A 
HETATM   20  C   UNL     1       7.656   6.854  22.493  0.00  0.00     0.030 A 
BRANCH  18  21
HETATM   21  C   UNL     1       4.910   4.385  23.456  0.00  0.00     0.206 C 
BRANCH  21  22
HETATM   22  O   UNL     1       3.543   4.854  23.396  0.00  0.00    -0.385 OA
BRANCH  22  23
HETATM   23  C   UNL     1       3.025   4.840  22.055  0.00  0.00     0.195 C 
BRANCH  23  24
HETATM   24  C   UNL     1       1.507   4.723  22.128  0.00  0.00     0.255 C 
BRANCH  24  25
HETATM   25  N   UNL     1       0.912   5.416  20.950  0.00  0.00    -0.077 N 
HETATM   26  H   UNL     1       1.614   5.421  20.194  0.00  0.00     0.274 HD
HETATM   27  H   UNL     1       0.089   4.918  20.589  0.00  0.00     0.274 HD
HETATM   28  H   UNL     1       0.647   6.385  21.161  0.00  0.00     0.274 HD
ENDBRANCH  24  25
ENDBRANCH  23  24
ENDBRANCH  22  23
ENDBRANCH  21  22
ENDBRANCH  18  21
ENDBRANCH  12  15
ENDBRANCH   1  11
BRANCH   3  29
HETATM   29  O   UNL     1      11.277   9.834  21.428  0.00  0.00    -0.360 OA
HETATM   30  H   UNL     1      11.763  10.150  20.635  0.00  0.00     0.217 HD
ENDBRANCH   3  29
BRANCH  10  31
HETATM   31  C   UNL     1       8.926  15.346  24.648  0.00  0.00     0.100 C 
BRANCH  31  32
HETATM   32  C   UNL     1       7.500  15.118  24.122  0.00  0.00    -0.052 A 
HETATM   33  C   UNL     1       7.238  14.618  22.838  0.00  0.00     0.007 A 
HETATM   34  C   UNL     1       5.936  14.407  22.382  0.00  0.00     0.001 A 
HETATM   35  C   UNL     1       4.851  14.777  23.163  0.00  0.00     0.007 A 
HETATM   36  C   UNL     1       5.056  15.403  24.397  0.00  0.00    -0.061 A 
HETATM   37  C   UNL     1       6.377  15.534  24.886  0.00  0.00     0.014 A 
HETATM   38  C   UNL     1       3.856  15.926  25.138  0.00  0.00     0.048 C 
ENDBRANCH  31  32
ENDBRANCH  10  31
TORSDOF 10
ENDMDL
MODEL 9
REMARK VINA RESULT:    -7.139      2.311      3.614
REMARK INTER + INTRA:         -12.434
REMARK INTER:                 -10.895
REMARK INTRA:                  -1.540
REMARK UNBOUND:                -1.540
REMARK  10 active torsions:
REMARK  status: ('A' for Active; 'I' for Inactive)
REMARK    1  A    between atoms: N_1  and  C_5 
REMARK    2  A    between atoms: C_5  and  C_6 
REMARK    3  A    between atoms: C_6  and  O_7 
REMARK    4  A    between atoms: O_7  and  C_8 
REMARK    5  A    between atoms: C_8  and  C_9 
REMARK    6  A    between atoms: C_14  and  N_15 
REMARK       I    between atoms: N_15  and  C_17 
REMARK    7  A    between atoms: C_17  and  C_19 
REMARK    8  A    between atoms: C_21  and  O_22 
REMARK    9  A    between atoms: C_29  and  C_30 
REMARK   10  A    between atoms: C_30  and  C_31 
ROOT
HETATM    1  C   UNL     1       7.258  11.475  23.394  0.00  0.00     0.066 C 
HETATM    2  C   UNL     1       6.451  12.613  23.610  0.00  0.00     0.035 C 
HETATM    3  C   UNL     1       8.352  11.283  24.262  0.00  0.00     0.083 C 
HETATM    4  C   UNL     1       8.690  12.210  25.258  0.00  0.00     0.069 C 
HETATM    5  C   UNL     1       7.948  13.391  25.304  0.00  0.00     0.065 C 
HETATM    6  C   UNL     1       6.868  13.648  24.471  0.00  0.00     0.020 C 
HETATM    7  N   UNL     1       8.043  14.502  26.103  0.00  0.00    -0.277 N 
HETATM    8  H   UNL     1       8.693  14.659  26.866  0.00  0.00     0.189 HD
HETATM    9  N   UNL     1       7.186  15.485  25.785  0.00  0.00    -0.178 NA
HETATM   10  C   UNL     1       6.500  15.010  24.730  0.00  0.00     0.071 C 
ENDROOT
BRANCH   1  11
HETATM   11  C   UNL     1       7.039  10.496  22.252  0.00  0.00     0.260 C 
HETATM   12  N   UNL     1       6.224   9.327  22.396  0.00  0.00    -0.318 N 
HETATM   13  C   UNL     1       5.620   8.991  23.682  0.00  0.00     0.159 C 
HETATM   14  O   UNL     1       7.512  10.865  21.167  0.00  0.00    -0.267 OA
BRANCH  12  15
HETATM   15  C   UNL     1       5.923   8.438  21.279  0.00  0.00     0.037 A 
HETATM   16  C   UNL     1       6.599   7.208  21.127  0.00  0.00     0.030 A 
HETATM   17  C   UNL     1       6.272   6.285  20.121  0.00  0.00     0.011 A 
HETATM   18  C   UNL     1       5.237   6.558  19.238  0.00  0.00    -0.035 A 
HETATM   19  C   UNL     1       4.609   7.800  19.305  0.00  0.00     0.011 A 
HETATM   20  C   UNL     1       4.948   8.723  20.309  0.00  0.00     0.030 A 
BRANCH  18  21
HETATM   21  C   UNL     1       4.733   5.459  18.342  0.00  0.00     0.206 C 
BRANCH  21  22
HETATM   22  O   UNL     1       3.438   5.824  17.810  0.00  0.00    -0.385 OA
BRANCH  22  23
HETATM   23  C   UNL     1       3.449   5.917  16.376  0.00  0.00     0.195 C 
BRANCH  23  24
HETATM   24  C   UNL     1       2.807   7.240  15.976  0.00  0.00     0.255 C 
BRANCH  24  25
HETATM   25  N   UNL     1       1.922   7.702  17.083  0.00  0.00    -0.077 N 
HETATM   26  H   UNL     1       2.272   8.616  17.412  0.00  0.00     0.274 HD
HETATM   27  H   UNL     1       0.957   7.851  16.764  0.00  0.00     0.274 HD
HETATM   28  H   UNL     1       1.913   7.048  17.874  0.00  0.00     0.274 HD
ENDBRANCH  24  25
ENDBRANCH  23  24
ENDBRANCH  22  23
ENDBRANCH  21  22
ENDBRANCH  18  21
ENDBRANCH  12  15
ENDBRANCH   1  11
BRANCH   3  29
HETATM   29  O   UNL     1       9.169  10.178  24.209  0.00  0.00    -0.360 OA
HETATM   30  H   UNL     1       9.978  10.376  24.731  0.00  0.00     0.217 HD
ENDBRANCH   3  29
BRANCH  10  31
HETATM   31  C   UNL     1       5.524  15.919  24.004  0.00  0.00     0.100 C 
BRANCH  31  32
HETATM   32  C   UNL     1       4.082  15.410  24.145  0.00  0.00    -0.052 A 
HETATM   33  C   UNL     1       3.453  15.251  25.389  0.00  0.00     0.007 A 
HETATM   34  C   UNL     1       2.138  14.797  25.496  0.00  0.00     0.001 A 
HETATM   35  C   UNL     1       1.438  14.400  24.366  0.00  0.00     0.007 A 
HETATM   36  C   UNL     1       2.064  14.412  23.115  0.00  0.00    -0.061 A 
HETATM   37  C   UNL     1       3.366  14.953  23.006  0.00  0.00     0.014 A 
HETATM   38  C   UNL     1       1.322  13.828  21.943  0.00  0.00     0.048 C 
ENDBRANCH  31  32
ENDBRANCH  10  31
TORSDOF 10
ENDMDL
