MODEL 1
REMARK VINA RESULT:   -10.070      0.000      0.000
REMARK INTER + INTRA:         -15.473
REMARK INTER:                 -13.280
REMARK INTRA:                  -2.193
REMARK UNBOUND:                -1.281
REMARK  8 active torsions:
REMARK  status: ('A' for Active; 'I' for Inactive)
REMARK       I    between atoms: C_2  and  N_3 
REMARK    1  A    between atoms: C_2  and  C_18 
REMARK    2  A    between atoms: N_3  and  C_4 
REMARK    3  A    between atoms: C_4  and  C_5 
REMARK    4  A    between atoms: C_6  and  C_7 
REMARK    5  A    between atoms: C_19  and  O_20 
REMARK    6  A    between atoms: C_22  and  O_23 
REMARK    7  A    between atoms: C_24  and  C_25 
REMARK    8  A    between atoms: N_26  and  C_27 
ROOT
HETATM    1  C   UNL     1       2.764   7.291  24.787  0.00  0.00     0.066 C 
HETATM    2  C   UNL     1       3.595   7.240  25.912  0.00  0.00     0.084 C 
HETATM    3  C   UNL     1       4.804   6.563  25.849  0.00  0.00     0.075 C 
HETATM    4  C   UNL     1       5.143   5.864  24.690  0.00  0.00     0.082 C 
HETATM    5  C   UNL     1       4.264   5.775  23.589  0.00  0.00     0.046 C 
HETATM    6  C   UNL     1       3.065   6.502  23.652  0.00  0.00     0.038 C 
ENDROOT
BRANCH   1   7
HETATM    7  C   UNL     1       1.543   8.138  24.747  0.00  0.00     0.256 C 
HETATM    8  O   UNL     1       1.673   9.282  24.336  0.00  0.00    -0.267 OA
HETATM    9  N   UNL     1       0.318   7.610  25.175  0.00  0.00    -0.348 N 
HETATM   10  C   UNL     1       0.109   6.304  25.819  0.00  0.00     0.153 C 
BRANCH   9  11
HETATM   11  C   UNL     1      -0.867   8.489  25.135  0.00  0.00     0.165 C 
BRANCH  11  12
HETATM   12  C   UNL     1      -0.961   9.508  26.271  0.00  0.00    -0.029 A 
HETATM   13  C   UNL     1      -1.267  10.889  26.069  0.00  0.00    -0.017 A 
HETATM   14  C   UNL     1      -1.320  11.707  27.229  0.00  0.00     0.013 A 
HETATM   15  C   UNL     1      -1.078  11.219  28.516  0.00  0.00     0.001 A 
HETATM   16  C   UNL     1      -0.758   9.892  28.697  0.00  0.00     0.001 A 
HETATM   17  C   UNL     1      -0.680   9.059  27.588  0.00  0.00     0.010 A 
BRANCH  13  18
HETATM   18  C   UNL     1      -1.471  11.547  24.741  0.00  0.00    -0.008 A 
HETATM   19  C   UNL     1      -2.669  11.529  24.025  0.00  0.00     0.128 A 
HETATM   20  N   UNL     1      -2.861  12.029  22.776  0.00  0.00    -0.272 NA
HETATM   21  C   UNL     1      -1.818  12.659  22.207  0.00  0.00     0.116 A 
HETATM   22  C   UNL     1      -0.612  12.845  22.849  0.00  0.00     0.020 A 
HETATM   23  C   UNL     1      -0.442  12.277  24.115  0.00  0.00     0.015 A 
ENDBRANCH  13  18
ENDBRANCH  11  12
ENDBRANCH   9  11
ENDBRANCH   1   7
BRANCH   2  24
HETATM   24  O   UNL     1       3.314   7.843  27.108  0.00  0.00    -0.360 OA
HETATM   25  H   UNL     1       2.606   7.350  27.562  0.00  0.00     0.217 HD
ENDBRANCH   2  24
BRANCH   5  26
HETATM   26  C   UNL     1       4.553   4.767  22.520  0.00  0.00     0.172 A 
HETATM   27  N   UNL     1       4.944   5.018  21.224  0.00  0.00    -0.244 N 
HETATM   28  C   UNL     1       4.947   3.788  20.599  0.00  0.00     0.349 A 
HETATM   29  O   UNL     1       5.241   3.493  19.452  0.00  0.00    -0.245 OA
HETATM   30  N   UNL     1       4.577   2.872  21.570  0.00  0.00    -0.226 N 
HETATM   31  N   UNL     1       4.324   3.496  22.746  0.00  0.00    -0.151 NA
HETATM   32  H   UNL     1       4.537   1.868  21.459  0.00  0.00     0.194 HD
BRANCH  27  33
HETATM   33  C   UNL     1       5.359   6.186  20.558  0.00  0.00     0.051 C 
HETATM   34  C   UNL     1       4.516   6.928  19.715  0.00  0.00    -0.035 C 
HETATM   35  C   UNL     1       3.021   6.753  19.687  0.00  0.00     0.050 C 
HETATM   36  C   UNL     1       5.041   8.040  19.027  0.00  0.00     0.009 C 
HETATM   37  C   UNL     1       6.347   8.470  19.244  0.00  0.00     0.001 C 
HETATM   38  C   UNL     1       7.142   7.812  20.178  0.00  0.00     0.002 C 
HETATM   39  C   UNL     1       6.651   6.677  20.826  0.00  0.00     0.031 C 
ENDBRANCH  27  33
ENDBRANCH   5  26
BRANCH   4  40
HETATM   40  O   UNL     1       6.380   5.276  24.656  0.00  0.00    -0.360 OA
HETATM   41  H   UNL     1       7.051   5.944  24.874  0.00  0.00     0.217 HD
ENDBRANCH   4  40
TORSDOF 8
ENDMDL
MODEL 2
REMARK VINA RESULT:    -9.846      0.523      1.341
REMARK INTER + INTRA:         -15.157
REMARK INTER:                 -13.119
REMARK INTRA:                  -2.038
REMARK UNBOUND:                -1.281
REMARK  8 active torsions:
REMARK  status: ('A' for Active; 'I' for Inactive)
REMARK       I    between atoms: C_2  and  N_3 
REMARK    1  A    between atoms: C_2  and  C_18 
REMARK    2  A    between atoms: N_3  and  C_4 
REMARK    3  A    between atoms: C_4  and  C_5 
REMARK    4  A    between atoms: C_6  and  C_7 
REMARK    5  A    between atoms: C_19  and  O_20 
REMARK    6  A    between atoms: C_22  and  O_23 
REMARK    7  A    between atoms: C_24  and  C_25 
REMARK    8  A    between atoms: N_26  and  C_27 
ROOT
HETATM    1  C   UNL     1       2.810   7.208  24.691  0.00  0.00     0.066 C 
HETATM    2  C   UNL     1       3.693   7.170  25.775  0.00  0.00     0.084 C 
HETATM    3  C   UNL     1       4.914   6.523  25.652  0.00  0.00     0.075 C 
HETATM    4  C   UNL     1       5.216   5.840  24.474  0.00  0.00     0.082 C 
HETATM    5  C   UNL     1       4.290   5.736  23.414  0.00  0.00     0.046 C 
HETATM    6  C   UNL     1       3.078   6.433  23.537  0.00  0.00     0.038 C 
ENDROOT
BRANCH   1   7
HETATM    7  C   UNL     1       1.569   8.025  24.712  0.00  0.00     0.256 C 
HETATM    8  O   UNL     1       1.652   9.174  24.302  0.00  0.00    -0.267 OA
HETATM    9  N   UNL     1       0.378   7.466  25.194  0.00  0.00    -0.348 N 
HETATM   10  C   UNL     1       0.232   6.152  25.841  0.00  0.00     0.153 C 
BRANCH   9  11
HETATM   11  C   UNL     1      -0.828   8.316  25.215  0.00  0.00     0.165 C 
BRANCH  11  12
HETATM   12  C   UNL     1      -0.913   9.297  26.385  0.00  0.00    -0.029 A 
HETATM   13  C   UNL     1      -1.210  10.686  26.229  0.00  0.00    -0.017 A 
HETATM   14  C   UNL     1      -1.255  11.466  27.415  0.00  0.00     0.013 A 
HETATM   15  C   UNL     1      -1.015  10.934  28.684  0.00  0.00     0.001 A 
HETATM   16  C   UNL     1      -0.704   9.599  28.822  0.00  0.00     0.001 A 
HETATM   17  C   UNL     1      -0.634   8.803  27.685  0.00  0.00     0.010 A 
BRANCH  13  18
HETATM   18  C   UNL     1      -1.410  11.389  24.923  0.00  0.00    -0.008 A 
HETATM   19  C   UNL     1      -2.585  11.343  24.173  0.00  0.00     0.128 A 
HETATM   20  N   UNL     1      -2.769  11.886  22.940  0.00  0.00    -0.272 NA
HETATM   21  C   UNL     1      -1.743  12.589  22.428  0.00  0.00     0.116 A 
HETATM   22  C   UNL     1      -0.566  12.807  23.112  0.00  0.00     0.020 A 
HETATM   23  C   UNL     1      -0.402  12.194  24.358  0.00  0.00     0.015 A 
ENDBRANCH  13  18
ENDBRANCH  11  12
ENDBRANCH   9  11
ENDBRANCH   1   7
BRANCH   2  24
HETATM   24  O   UNL     1       3.453   7.759  26.988  0.00  0.00    -0.360 OA
HETATM   25  H   UNL     1       3.427   7.075  27.682  0.00  0.00     0.217 HD
ENDBRANCH   2  24
BRANCH   5  26
HETATM   26  C   UNL     1       4.553   4.741  22.325  0.00  0.00     0.172 A 
HETATM   27  N   UNL     1       4.362   4.919  20.974  0.00  0.00    -0.244 N 
HETATM   28  C   UNL     1       4.610   3.686  20.406  0.00  0.00     0.349 A 
HETATM   29  O   UNL     1       4.588   3.345  19.234  0.00  0.00    -0.245 OA
HETATM   30  N   UNL     1       4.956   2.852  21.455  0.00  0.00    -0.226 N 
HETATM   31  N   UNL     1       4.903   3.516  22.635  0.00  0.00    -0.151 NA
HETATM   32  H   UNL     1       5.256   1.889  21.378  0.00  0.00     0.194 HD
BRANCH  27  33
HETATM   33  C   UNL     1       4.064   6.048  20.188  0.00  0.00     0.051 C 
HETATM   34  C   UNL     1       4.970   7.101  19.986  0.00  0.00    -0.035 C 
HETATM   35  C   UNL     1       6.438   6.997  20.304  0.00  0.00     0.050 C 
HETATM   36  C   UNL     1       4.556   8.229  19.250  0.00  0.00     0.009 C 
HETATM   37  C   UNL     1       3.305   8.271  18.639  0.00  0.00     0.001 C 
HETATM   38  C   UNL     1       2.457   7.171  18.731  0.00  0.00     0.002 C 
HETATM   39  C   UNL     1       2.835   6.070  19.502  0.00  0.00     0.031 C 
ENDBRANCH  27  33
ENDBRANCH   5  26
BRANCH   4  40
HETATM   40  O   UNL     1       6.464   5.282  24.379  0.00  0.00    -0.360 OA
HETATM   41  H   UNL     1       6.522   4.782  23.547  0.00  0.00     0.217 HD
ENDBRANCH   4  40
TORSDOF 8
ENDMDL
MODEL 3
REMARK VINA RESULT:    -9.455      2.305      4.358
REMARK INTER + INTRA:         -14.605
REMARK INTER:                 -12.672
REMARK INTRA:                  -1.932
REMARK UNBOUND:                -1.281
REMARK  8 active torsions:
REMARK  status: ('A' for Active; 'I' for Inactive)
REMARK       I    between atoms: C_2  and  N_3 
REMARK    1  A    between atoms: C_2  and  C_18 
REMARK    2  A    between atoms: N_3  and  C_4 
REMARK    3  A    between atoms: C_4  and  C_5 
REMARK    4  A    between atoms: C_6  and  C_7 
REMARK    5  A    between atoms: C_19  and  O_20 
REMARK    6  A    between atoms: C_22  and  O_23 
REMARK    7  A    between atoms: C_24  and  C_25 
REMARK    8  A    between atoms: N_26  and  C_27 
ROOT
HETATM    1  C   UNL     1       3.691   8.202  22.531  0.00  0.00     0.066 C 
HETATM    2  C   UNL     1       4.349   9.283  21.936  0.00  0.00     0.084 C 
HETATM    3  C   UNL     1       4.809   9.182  20.631  0.00  0.00     0.075 C 
HETATM    4  C   UNL     1       4.689   7.969  19.951  0.00  0.00     0.082 C 
HETATM    5  C   UNL     1       4.161   6.816  20.570  0.00  0.00     0.046 C 
HETATM    6  C   UNL     1       3.660   6.949  21.874  0.00  0.00     0.038 C 
ENDROOT
BRANCH   1   7
HETATM    7  C   UNL     1       3.033   8.313  23.859  0.00  0.00     0.256 C 
HETATM    8  O   UNL     1       2.162   9.163  23.979  0.00  0.00    -0.267 OA
HETATM    9  N   UNL     1       3.428   7.464  24.902  0.00  0.00    -0.348 N 
HETATM   10  C   UNL     1       4.563   6.528  24.881  0.00  0.00     0.153 C 
BRANCH   9  11
HETATM   11  C   UNL     1       2.762   7.618  26.210  0.00  0.00     0.165 C 
BRANCH  11  12
HETATM   12  C   UNL     1       1.634   6.623  26.488  0.00  0.00    -0.029 A 
HETATM   13  C   UNL     1       0.250   6.974  26.465  0.00  0.00    -0.017 A 
HETATM   14  C   UNL     1      -0.677   5.934  26.742  0.00  0.00     0.013 A 
HETATM   15  C   UNL     1      -0.286   4.626  27.037  0.00  0.00     0.001 A 
HETATM   16  C   UNL     1       1.053   4.303  27.081  0.00  0.00     0.001 A 
HETATM   17  C   UNL     1       1.994   5.294  26.832  0.00  0.00     0.010 A 
BRANCH  13  18
HETATM   18  C   UNL     1      -0.293   8.350  26.240  0.00  0.00    -0.008 A 
HETATM   19  C   UNL     1      -0.738   8.832  25.008  0.00  0.00     0.128 A 
HETATM   20  N   UNL     1      -1.143  10.103  24.746  0.00  0.00    -0.272 NA
HETATM   21  C   UNL     1      -1.182  10.954  25.786  0.00  0.00     0.116 A 
HETATM   22  C   UNL     1      -0.875  10.578  27.077  0.00  0.00     0.020 A 
HETATM   23  C   UNL     1      -0.421   9.274  27.295  0.00  0.00     0.015 A 
ENDBRANCH  13  18
ENDBRANCH  11  12
ENDBRANCH   9  11
ENDBRANCH   1   7
BRANCH   2  24
HETATM   24  O   UNL     1       4.566  10.488  22.550  0.00  0.00    -0.360 OA
HETATM   25  H   UNL     1       5.392  10.881  22.211  0.00  0.00     0.217 HD
ENDBRANCH   2  24
BRANCH   5  26
HETATM   26  C   UNL     1       4.346   5.491  19.897  0.00  0.00     0.172 A 
HETATM   27  N   UNL     1       3.546   4.932  18.927  0.00  0.00    -0.244 N 
HETATM   28  C   UNL     1       4.043   3.661  18.731  0.00  0.00     0.349 A 
HETATM   29  O   UNL     1       3.680   2.788  17.959  0.00  0.00    -0.245 OA
HETATM   30  N   UNL     1       5.128   3.546  19.584  0.00  0.00    -0.226 N 
HETATM   31  N   UNL     1       5.292   4.681  20.307  0.00  0.00    -0.151 NA
HETATM   32  H   UNL     1       5.756   2.757  19.648  0.00  0.00     0.194 HD
BRANCH  27  33
HETATM   33  C   UNL     1       2.481   5.436  18.156  0.00  0.00     0.051 C 
HETATM   34  C   UNL     1       1.136   5.327  18.543  0.00  0.00    -0.035 C 
HETATM   35  C   UNL     1       0.710   4.965  19.941  0.00  0.00     0.050 C 
HETATM   36  C   UNL     1       0.131   5.790  17.670  0.00  0.00     0.009 C 
HETATM   37  C   UNL     1       0.454   6.438  16.481  0.00  0.00     0.001 C 
HETATM   38  C   UNL     1       1.790   6.662  16.160  0.00  0.00     0.002 C 
HETATM   39  C   UNL     1       2.794   6.161  16.990  0.00  0.00     0.031 C 
ENDBRANCH  27  33
ENDBRANCH   5  26
BRANCH   4  40
HETATM   40  O   UNL     1       5.092   7.946  18.642  0.00  0.00    -0.360 OA
HETATM   41  H   UNL     1       6.041   7.734  18.609  0.00  0.00     0.217 HD
ENDBRANCH   4  40
TORSDOF 8
ENDMDL
MODEL 4
REMARK VINA RESULT:    -9.443      3.286      8.211
REMARK INTER + INTRA:         -14.589
REMARK INTER:                 -12.441
REMARK INTRA:                  -2.148
REMARK UNBOUND:                -1.281
REMARK  8 active torsions:
REMARK  status: ('A' for Active; 'I' for Inactive)
REMARK       I    between atoms: C_2  and  N_3 
REMARK    1  A    between atoms: C_2  and  C_18 
REMARK    2  A    between atoms: N_3  and  C_4 
REMARK    3  A    between atoms: C_4  and  C_5 
REMARK    4  A    between atoms: C_6  and  C_7 
REMARK    5  A    between atoms: C_19  and  O_20 
REMARK    6  A    between atoms: C_22  and  O_23 
REMARK    7  A    between atoms: C_24  and  C_25 
REMARK    8  A    between atoms: N_26  and  C_27 
ROOT
HETATM    1  C   UNL     1       1.056   9.685  25.728  0.00  0.00     0.066 C 
HETATM    2  C   UNL     1      -0.206  10.215  25.435  0.00  0.00     0.084 C 
HETATM    3  C   UNL     1      -1.166  10.308  26.431  0.00  0.00     0.075 C 
HETATM    4  C   UNL     1      -0.896   9.793  27.699  0.00  0.00     0.082 C 
HETATM    5  C   UNL     1       0.312   9.123  27.990  0.00  0.00     0.046 C 
HETATM    6  C   UNL     1       1.289   9.076  26.984  0.00  0.00     0.038 C 
ENDROOT
BRANCH   1   7
HETATM    7  C   UNL     1       2.171   9.715  24.747  0.00  0.00     0.256 C 
HETATM    8  O   UNL     1       2.631  10.812  24.460  0.00  0.00    -0.267 OA
HETATM    9  N   UNL     1       2.643   8.517  24.194  0.00  0.00    -0.348 N 
HETATM   10  C   UNL     1       2.047   7.183  24.371  0.00  0.00     0.153 C 
BRANCH   9  11
HETATM   11  C   UNL     1       3.740   8.592  23.211  0.00  0.00     0.165 C 
BRANCH  11  12
HETATM   12  C   UNL     1       4.490   7.281  22.971  0.00  0.00    -0.029 A 
HETATM   13  C   UNL     1       4.540   6.622  21.704  0.00  0.00    -0.017 A 
HETATM   14  C   UNL     1       5.282   5.412  21.644  0.00  0.00     0.013 A 
HETATM   15  C   UNL     1       5.932   4.862  22.751  0.00  0.00     0.001 A 
HETATM   16  C   UNL     1       5.856   5.492  23.974  0.00  0.00     0.001 A 
HETATM   17  C   UNL     1       5.128   6.670  24.082  0.00  0.00     0.010 A 
BRANCH  13  18
HETATM   18  C   UNL     1       3.827   7.066  20.466  0.00  0.00    -0.008 A 
HETATM   19  C   UNL     1       4.086   8.258  19.789  0.00  0.00     0.128 A 
HETATM   20  N   UNL     1       3.393   8.740  18.723  0.00  0.00    -0.272 NA
HETATM   21  C   UNL     1       2.412   7.960  18.235  0.00  0.00     0.116 A 
HETATM   22  C   UNL     1       2.125   6.709  18.740  0.00  0.00     0.020 A 
HETATM   23  C   UNL     1       2.832   6.271  19.864  0.00  0.00     0.015 A 
ENDBRANCH  13  18
ENDBRANCH  11  12
ENDBRANCH   9  11
ENDBRANCH   1   7
BRANCH   2  24
HETATM   24  O   UNL     1      -0.578  10.687  24.205  0.00  0.00    -0.360 OA
HETATM   25  H   UNL     1       0.062  11.359  23.908  0.00  0.00     0.217 HD
ENDBRANCH   2  24
BRANCH   5  26
HETATM   26  C   UNL     1       0.407   8.332  29.259  0.00  0.00     0.172 A 
HETATM   27  N   UNL     1       0.711   6.996  29.385  0.00  0.00    -0.244 N 
HETATM   28  C   UNL     1       0.538   6.707  30.722  0.00  0.00     0.349 A 
HETATM   29  O   UNL     1       0.703   5.659  31.325  0.00  0.00    -0.245 OA
HETATM   30  N   UNL     1       0.160   7.898  31.319  0.00  0.00    -0.226 N 
HETATM   31  N   UNL     1       0.071   8.889  30.398  0.00  0.00    -0.151 NA
HETATM   32  H   UNL     1       0.011   8.050  32.307  0.00  0.00     0.194 HD
BRANCH  27  33
HETATM   33  C   UNL     1       1.184   6.031  28.476  0.00  0.00     0.051 C 
HETATM   34  C   UNL     1       0.337   5.151  27.783  0.00  0.00    -0.035 C 
HETATM   35  C   UNL     1      -1.153   5.350  27.684  0.00  0.00     0.050 C 
HETATM   36  C   UNL     1       0.904   4.164  26.953  0.00  0.00     0.009 C 
HETATM   37  C   UNL     1       2.278   4.111  26.733  0.00  0.00     0.001 C 
HETATM   38  C   UNL     1       3.106   5.066  27.317  0.00  0.00     0.002 C 
HETATM   39  C   UNL     1       2.561   6.015  28.184  0.00  0.00     0.031 C 
ENDBRANCH  27  33
ENDBRANCH   5  26
BRANCH   4  40
HETATM   40  O   UNL     1      -1.851   9.978  28.664  0.00  0.00    -0.360 OA
HETATM   41  H   UNL     1      -1.716   9.323  29.369  0.00  0.00     0.217 HD
ENDBRANCH   4  40
TORSDOF 8
ENDMDL
MODEL 5
REMARK VINA RESULT:    -9.330      2.824      5.128
REMARK INTER + INTRA:         -14.430
REMARK INTER:                 -12.550
REMARK INTRA:                  -1.880
REMARK UNBOUND:                -1.281
REMARK  8 active torsions:
REMARK  status: ('A' for Active; 'I' for Inactive)
REMARK       I    between atoms: C_2  and  N_3 
REMARK    1  A    between atoms: C_2  and  C_18 
REMARK    2  A    between atoms: N_3  and  C_4 
REMARK    3  A    between atoms: C_4  and  C_5 
REMARK    4  A    between atoms: C_6  and  C_7 
REMARK    5  A    between atoms: C_19  and  O_20 
REMARK    6  A    between atoms: C_22  and  O_23 
REMARK    7  A    between atoms: C_24  and  C_25 
REMARK    8  A    between atoms: N_26  and  C_27 
ROOT
HETATM    1  C   UNL     1       4.432   7.178  22.377  0.00  0.00     0.066 C 
HETATM    2  C   UNL     1       5.689   6.679  22.018  0.00  0.00     0.084 C 
HETATM    3  C   UNL     1       6.098   6.719  20.693  0.00  0.00     0.075 C 
HETATM    4  C   UNL     1       5.216   7.177  19.714  0.00  0.00     0.082 C 
HETATM    5  C   UNL     1       3.891   7.553  20.020  0.00  0.00     0.046 C 
HETATM    6  C   UNL     1       3.508   7.549  21.371  0.00  0.00     0.038 C 
ENDROOT
BRANCH   1   7
HETATM    7  C   UNL     1       4.013   7.314  23.796  0.00  0.00     0.256 C 
HETATM    8  O   UNL     1       4.264   8.374  24.352  0.00  0.00    -0.267 OA
HETATM    9  N   UNL     1       3.365   6.247  24.434  0.00  0.00    -0.348 N 
HETATM   10  C   UNL     1       3.164   4.897  23.885  0.00  0.00     0.153 C 
BRANCH   9  11
HETATM   11  C   UNL     1       2.981   6.416  25.848  0.00  0.00     0.165 C 
BRANCH  11  12
HETATM   12  C   UNL     1       1.666   5.746  26.250  0.00  0.00    -0.029 A 
HETATM   13  C   UNL     1       0.412   6.430  26.291  0.00  0.00    -0.017 A 
HETATM   14  C   UNL     1      -0.719   5.665  26.683  0.00  0.00     0.013 A 
HETATM   15  C   UNL     1      -0.642   4.314  27.028  0.00  0.00     0.001 A 
HETATM   16  C   UNL     1       0.576   3.670  27.010  0.00  0.00     0.001 A 
HETATM   17  C   UNL     1       1.711   4.384  26.648  0.00  0.00     0.010 A 
BRANCH  13  18
HETATM   18  C   UNL     1       0.210   7.887  26.020  0.00  0.00    -0.008 A 
HETATM   19  C   UNL     1       0.580   8.530  24.838  0.00  0.00     0.128 A 
HETATM   20  N   UNL     1       0.502   9.866  24.596  0.00  0.00    -0.272 NA
HETATM   21  C   UNL     1      -0.045  10.626  25.561  0.00  0.00     0.116 A 
HETATM   22  C   UNL     1      -0.553  10.104  26.732  0.00  0.00     0.020 A 
HETATM   23  C   UNL     1      -0.413   8.731  26.959  0.00  0.00     0.015 A 
ENDBRANCH  13  18
ENDBRANCH  11  12
ENDBRANCH   9  11
ENDBRANCH   1   7
BRANCH   2  24
HETATM   24  O   UNL     1       6.593   6.155  22.903  0.00  0.00    -0.360 OA
HETATM   25  H   UNL     1       6.864   5.268  22.603  0.00  0.00     0.217 HD
ENDBRANCH   2  24
BRANCH   5  26
HETATM   26  C   UNL     1       2.917   7.734  18.896  0.00  0.00     0.172 A 
HETATM   27  N   UNL     1       2.282   6.745  18.180  0.00  0.00    -0.244 N 
HETATM   28  C   UNL     1       1.605   7.402  17.173  0.00  0.00     0.349 A 
HETATM   29  O   UNL     1       0.884   6.958  16.295  0.00  0.00    -0.245 OA
HETATM   30  N   UNL     1       1.861   8.749  17.365  0.00  0.00    -0.226 N 
HETATM   31  N   UNL     1       2.685   8.935  18.425  0.00  0.00    -0.151 NA
HETATM   32  H   UNL     1       1.467   9.513  16.834  0.00  0.00     0.194 HD
BRANCH  27  33
HETATM   33  C   UNL     1       2.179   5.352  18.352  0.00  0.00     0.051 C 
HETATM   34  C   UNL     1       1.097   4.739  19.004  0.00  0.00    -0.035 C 
HETATM   35  C   UNL     1      -0.199   5.449  19.292  0.00  0.00     0.050 C 
HETATM   36  C   UNL     1       1.117   3.344  19.201  0.00  0.00     0.009 C 
HETATM   37  C   UNL     1       2.139   2.557  18.677  0.00  0.00     0.001 C 
HETATM   38  C   UNL     1       3.144   3.150  17.919  0.00  0.00     0.002 C 
HETATM   39  C   UNL     1       3.164   4.537  17.762  0.00  0.00     0.031 C 
ENDBRANCH  27  33
ENDBRANCH   5  26
BRANCH   4  40
HETATM   40  O   UNL     1       5.697   7.264  18.434  0.00  0.00    -0.360 OA
HETATM   41  H   UNL     1       6.574   7.684  18.456  0.00  0.00     0.217 HD
ENDBRANCH   4  40
TORSDOF 8
ENDMDL
MODEL 6
REMARK VINA RESULT:    -9.172      1.728      2.157
REMARK INTER + INTRA:         -14.206
REMARK INTER:                 -12.268
REMARK INTRA:                  -1.938
REMARK UNBOUND:                -1.281
REMARK  8 active torsions:
REMARK  status: ('A' for Active; 'I' for Inactive)
REMARK       I    between atoms: C_2  and  N_3 
REMARK    1  A    between atoms: C_2  and  C_18 
REMARK    2  A    between atoms: N_3  and  C_4 
REMARK    3  A    between atoms: C_4  and  C_5 
REMARK    4  A    between atoms: C_6  and  C_7 
REMARK    5  A    between atoms: C_19  and  O_20 
REMARK    6  A    between atoms: C_22  and  O_23 
REMARK    7  A    between atoms: C_24  and  C_25 
REMARK    8  A    between atoms: N_26  and  C_27 
ROOT
HETATM    1  C   UNL     1       2.905   6.132  24.173  0.00  0.00     0.066 C 
HETATM    2  C   UNL     1       2.752   4.930  24.873  0.00  0.00     0.084 C 
HETATM    3  C   UNL     1       2.943   3.721  24.221  0.00  0.00     0.075 C 
HETATM    4  C   UNL     1       3.200   3.710  22.850  0.00  0.00     0.082 C 
HETATM    5  C   UNL     1       3.218   4.896  22.085  0.00  0.00     0.046 C 
HETATM    6  C   UNL     1       3.067   6.113  22.768  0.00  0.00     0.038 C 
ENDROOT
BRANCH   1   7
HETATM    7  C   UNL     1       2.877   7.451  24.856  0.00  0.00     0.256 C 
HETATM    8  O   UNL     1       3.949   7.907  25.230  0.00  0.00    -0.267 OA
HETATM    9  N   UNL     1       1.655   8.109  25.048  0.00  0.00    -0.348 N 
HETATM   10  C   UNL     1       0.318   7.562  24.766  0.00  0.00     0.153 C 
BRANCH   9  11
HETATM   11  C   UNL     1       1.669   9.408  25.747  0.00  0.00     0.165 C 
BRANCH  11  12
HETATM   12  C   UNL     1       0.565   9.601  26.787  0.00  0.00    -0.029 A 
HETATM   13  C   UNL     1      -0.621  10.360  26.546  0.00  0.00    -0.017 A 
HETATM   14  C   UNL     1      -1.554  10.442  27.615  0.00  0.00     0.013 A 
HETATM   15  C   UNL     1      -1.346   9.833  28.855  0.00  0.00     0.001 A 
HETATM   16  C   UNL     1      -0.186   9.125  29.085  0.00  0.00     0.001 A 
HETATM   17  C   UNL     1       0.760   9.032  28.073  0.00  0.00     0.010 A 
BRANCH  13  18
HETATM   18  C   UNL     1      -0.927  11.120  25.294  0.00  0.00    -0.008 A 
HETATM   19  C   UNL     1      -1.875  10.734  24.346  0.00  0.00     0.128 A 
HETATM   20  N   UNL     1      -2.108  11.344  23.154  0.00  0.00    -0.272 NA
HETATM   21  C   UNL     1      -1.405  12.461  22.896  0.00  0.00     0.116 A 
HETATM   22  C   UNL     1      -0.516  13.013  23.794  0.00  0.00     0.020 A 
HETATM   23  C   UNL     1      -0.274  12.330  24.990  0.00  0.00     0.015 A 
ENDBRANCH  13  18
ENDBRANCH  11  12
ENDBRANCH   9  11
ENDBRANCH   1   7
BRANCH   2  24
HETATM   24  O   UNL     1       2.441   4.845  26.203  0.00  0.00    -0.360 OA
HETATM   25  H   UNL     1       3.231   4.571  26.705  0.00  0.00     0.217 HD
ENDBRANCH   2  24
BRANCH   5  26
HETATM   26  C   UNL     1       3.189   4.788  20.591  0.00  0.00     0.172 A 
HETATM   27  N   UNL     1       3.896   5.549  19.689  0.00  0.00    -0.244 N 
HETATM   28  C   UNL     1       3.430   5.170  18.448  0.00  0.00     0.349 A 
HETATM   29  O   UNL     1       3.764   5.548  17.336  0.00  0.00    -0.245 OA
HETATM   30  N   UNL     1       2.484   4.187  18.685  0.00  0.00    -0.226 N 
HETATM   31  N   UNL     1       2.338   3.973  20.015  0.00  0.00    -0.151 NA
HETATM   32  H   UNL     1       1.989   3.653  17.984  0.00  0.00     0.194 HD
BRANCH  27  33
HETATM   33  C   UNL     1       4.943   6.479  19.833  0.00  0.00     0.051 C 
HETATM   34  C   UNL     1       4.823   7.829  19.466  0.00  0.00    -0.035 C 
HETATM   35  C   UNL     1       3.500   8.493  19.193  0.00  0.00     0.050 C 
HETATM   36  C   UNL     1       5.949   8.670  19.571  0.00  0.00     0.009 C 
HETATM   37  C   UNL     1       7.142   8.211  20.122  0.00  0.00     0.001 C 
HETATM   38  C   UNL     1       7.219   6.908  20.606  0.00  0.00     0.002 C 
HETATM   39  C   UNL     1       6.128   6.050  20.459  0.00  0.00     0.031 C 
ENDBRANCH  27  33
ENDBRANCH   5  26
BRANCH   4  40
HETATM   40  O   UNL     1       3.453   2.493  22.272  0.00  0.00    -0.360 OA
HETATM   41  H   UNL     1       2.618   2.000  22.200  0.00  0.00     0.217 HD
ENDBRANCH   4  40
TORSDOF 8
ENDMDL
MODEL 7
REMARK VINA RESULT:    -8.975      2.962      5.498
REMARK INTER + INTRA:         -13.929
REMARK INTER:                 -11.781
REMARK INTRA:                  -2.148
REMARK UNBOUND:                -1.281
REMARK  8 active torsions:
REMARK  status: ('A' for Active; 'I' for Inactive)
REMARK       I    between atoms: C_2  and  N_3 
REMARK    1  A    between atoms: C_2  and  C_18 
REMARK    2  A    between atoms: N_3  and  C_4 
REMARK    3  A    between atoms: C_4  and  C_5 
REMARK    4  A    between atoms: C_6  and  C_7 
REMARK    5  A    between atoms: C_19  and  O_20 
REMARK    6  A    between atoms: C_22  and  O_23 
REMARK    7  A    between atoms: C_24  and  C_25 
REMARK    8  A    between atoms: N_26  and  C_27 
ROOT
HETATM    1  C   UNL     1       4.393   7.582  21.854  0.00  0.00     0.066 C 
HETATM    2  C   UNL     1       5.545   6.839  21.581  0.00  0.00     0.084 C 
HETATM    3  C   UNL     1       5.856   6.498  20.273  0.00  0.00     0.075 C 
HETATM    4  C   UNL     1       4.970   6.826  19.247  0.00  0.00     0.082 C 
HETATM    5  C   UNL     1       3.730   7.449  19.503  0.00  0.00     0.046 C 
HETATM    6  C   UNL     1       3.452   7.825  20.826  0.00  0.00     0.038 C 
ENDROOT
BRANCH   1   7
HETATM    7  C   UNL     1       4.101   8.115  23.210  0.00  0.00     0.256 C 
HETATM    8  O   UNL     1       4.740   9.092  23.574  0.00  0.00    -0.267 OA
HETATM    9  N   UNL     1       3.131   7.493  24.007  0.00  0.00    -0.348 N 
HETATM   10  C   UNL     1       2.433   6.233  23.704  0.00  0.00     0.153 C 
BRANCH   9  11
HETATM   11  C   UNL     1       2.883   8.042  25.354  0.00  0.00     0.165 C 
BRANCH  11  12
HETATM   12  C   UNL     1       1.694   8.998  25.459  0.00  0.00    -0.029 A 
HETATM   13  C   UNL     1       0.490   8.685  26.162  0.00  0.00    -0.017 A 
HETATM   14  C   UNL     1      -0.522   9.681  26.169  0.00  0.00     0.013 A 
HETATM   15  C   UNL     1      -0.383  10.911  25.522  0.00  0.00     0.001 A 
HETATM   16  C   UNL     1       0.771  11.193  24.825  0.00  0.00     0.001 A 
HETATM   17  C   UNL     1       1.781  10.241  24.779  0.00  0.00     0.010 A 
BRANCH  13  18
HETATM   18  C   UNL     1       0.189   7.379  26.829  0.00  0.00    -0.008 A 
HETATM   19  C   UNL     1      -0.487   6.320  26.223  0.00  0.00     0.128 A 
HETATM   20  N   UNL     1      -0.865   5.162  26.828  0.00  0.00    -0.272 NA
HETATM   21  C   UNL     1      -0.490   4.997  28.109  0.00  0.00     0.116 A 
HETATM   22  C   UNL     1       0.277   5.917  28.792  0.00  0.00     0.020 A 
HETATM   23  C   UNL     1       0.606   7.113  28.147  0.00  0.00     0.015 A 
ENDBRANCH  13  18
ENDBRANCH  11  12
ENDBRANCH   9  11
ENDBRANCH   1   7
BRANCH   2  24
HETATM   24  O   UNL     1       6.439   6.421  22.531  0.00  0.00    -0.360 OA
HETATM   25  H   UNL     1       6.317   6.946  23.344  0.00  0.00     0.217 HD
ENDBRANCH   2  24
BRANCH   5  26
HETATM   26  C   UNL     1       2.706   7.488  18.410  0.00  0.00     0.172 A 
HETATM   27  N   UNL     1       2.053   6.417  17.844  0.00  0.00    -0.244 N 
HETATM   28  C   UNL     1       1.325   6.946  16.798  0.00  0.00     0.349 A 
HETATM   29  O   UNL     1       0.572   6.396  16.011  0.00  0.00    -0.245 OA
HETATM   30  N   UNL     1       1.573   8.308  16.818  0.00  0.00    -0.226 N 
HETATM   31  N   UNL     1       2.439   8.624  17.811  0.00  0.00    -0.151 NA
HETATM   32  H   UNL     1       1.147   9.001  16.218  0.00  0.00     0.194 HD
BRANCH  27  33
HETATM   33  C   UNL     1       1.974   5.054  18.184  0.00  0.00     0.051 C 
HETATM   34  C   UNL     1       1.050   4.549  19.113  0.00  0.00    -0.035 C 
HETATM   35  C   UNL     1      -0.145   5.329  19.592  0.00  0.00     0.050 C 
HETATM   36  C   UNL     1       1.097   3.182  19.452  0.00  0.00     0.009 C 
HETATM   37  C   UNL     1       1.973   2.311  18.811  0.00  0.00     0.001 C 
HETATM   38  C   UNL     1       2.799   2.788  17.797  0.00  0.00     0.002 C 
HETATM   39  C   UNL     1       2.799   4.150  17.490  0.00  0.00     0.031 C 
ENDBRANCH  27  33
ENDBRANCH   5  26
BRANCH   4  40
HETATM   40  O   UNL     1       5.361   6.531  17.967  0.00  0.00    -0.360 OA
HETATM   41  H   UNL     1       6.332   6.481  17.939  0.00  0.00     0.217 HD
ENDBRANCH   4  40
TORSDOF 8
ENDMDL
MODEL 8
REMARK VINA RESULT:    -8.963      1.993      2.747
REMARK INTER + INTRA:         -13.912
REMARK INTER:                 -12.631
REMARK INTRA:                  -1.281
REMARK UNBOUND:                -1.281
REMARK  8 active torsions:
REMARK  status: ('A' for Active; 'I' for Inactive)
REMARK       I    between atoms: C_2  and  N_3 
REMARK    1  A    between atoms: C_2  and  C_18 
REMARK    2  A    between atoms: N_3  and  C_4 
REMARK    3  A    between atoms: C_4  and  C_5 
REMARK    4  A    between atoms: C_6  and  C_7 
REMARK    5  A    between atoms: C_19  and  O_20 
REMARK    6  A    between atoms: C_22  and  O_23 
REMARK    7  A    between atoms: C_24  and  C_25 
REMARK    8  A    between atoms: N_26  and  C_27 
ROOT
HETATM    1  C   UNL     1       3.468   6.545  23.675  0.00  0.00     0.066 C 
HETATM    2  C   UNL     1       4.500   5.887  24.354  0.00  0.00     0.084 C 
HETATM    3  C   UNL     1       4.955   4.658  23.899  0.00  0.00     0.075 C 
HETATM    4  C   UNL     1       4.320   4.046  22.819  0.00  0.00     0.082 C 
HETATM    5  C   UNL     1       3.185   4.613  22.201  0.00  0.00     0.046 C 
HETATM    6  C   UNL     1       2.766   5.877  22.644  0.00  0.00     0.038 C 
ENDROOT
BRANCH   1   7
HETATM    7  C   UNL     1       3.058   7.932  24.017  0.00  0.00     0.256 C 
HETATM    8  O   UNL     1       3.848   8.827  23.752  0.00  0.00    -0.267 OA
HETATM    9  N   UNL     1       1.814   8.160  24.620  0.00  0.00    -0.348 N 
HETATM   10  C   UNL     1       0.880   7.131  25.105  0.00  0.00     0.153 C 
BRANCH   9  11
HETATM   11  C   UNL     1       1.452   9.549  24.958  0.00  0.00     0.165 C 
BRANCH  11  12
HETATM   12  C   UNL     1       0.514   9.704  26.157  0.00  0.00    -0.029 A 
HETATM   13  C   UNL     1      -0.703  10.451  26.115  0.00  0.00    -0.017 A 
HETATM   14  C   UNL     1      -1.465  10.497  27.313  0.00  0.00     0.013 A 
HETATM   15  C   UNL     1      -1.066   9.866  28.493  0.00  0.00     0.001 A 
HETATM   16  C   UNL     1       0.123   9.170  28.531  0.00  0.00     0.001 A 
HETATM   17  C   UNL     1       0.907   9.112  27.386  0.00  0.00     0.010 A 
BRANCH  13  18
HETATM   18  C   UNL     1      -1.201  11.232  24.940  0.00  0.00    -0.008 A 
HETATM   19  C   UNL     1      -2.448  11.050  24.340  0.00  0.00     0.128 A 
HETATM   20  N   UNL     1      -2.893  11.670  23.215  0.00  0.00    -0.272 NA
HETATM   21  C   UNL     1      -2.081  12.594  22.671  0.00  0.00     0.116 A 
HETATM   22  C   UNL     1      -0.870  12.951  23.226  0.00  0.00     0.020 A 
HETATM   23  C   UNL     1      -0.431  12.257  24.358  0.00  0.00     0.015 A 
ENDBRANCH  13  18
ENDBRANCH  11  12
ENDBRANCH   9  11
ENDBRANCH   1   7
BRANCH   2  24
HETATM   24  O   UNL     1       5.138   6.385  25.459  0.00  0.00    -0.360 OA
HETATM   25  H   UNL     1       4.519   6.940  25.969  0.00  0.00     0.217 HD
ENDBRANCH   2  24
BRANCH   5  26
HETATM   26  C   UNL     1       2.377   3.766  21.266  0.00  0.00     0.172 A 
HETATM   27  N   UNL     1       1.895   4.123  20.027  0.00  0.00    -0.244 N 
HETATM   28  C   UNL     1       1.105   3.067  19.625  0.00  0.00     0.349 A 
HETATM   29  O   UNL     1       0.477   2.907  18.591  0.00  0.00    -0.245 OA
HETATM   30  N   UNL     1       1.180   2.131  20.644  0.00  0.00    -0.226 N 
HETATM   31  N   UNL     1       1.960   2.586  21.655  0.00  0.00    -0.151 NA
HETATM   32  H   UNL     1       0.762   1.211  20.642  0.00  0.00     0.194 HD
BRANCH  27  33
HETATM   33  C   UNL     1       2.127   5.232  19.192  0.00  0.00     0.051 C 
HETATM   34  C   UNL     1       3.387   5.533  18.650  0.00  0.00    -0.035 C 
HETATM   35  C   UNL     1       4.529   4.552  18.629  0.00  0.00     0.050 C 
HETATM   36  C   UNL     1       3.542   6.709  17.889  0.00  0.00     0.009 C 
HETATM   37  C   UNL     1       2.452   7.520  17.586  0.00  0.00     0.001 C 
HETATM   38  C   UNL     1       1.180   7.151  18.015  0.00  0.00     0.002 C 
HETATM   39  C   UNL     1       1.021   6.018  18.814  0.00  0.00     0.031 C 
ENDBRANCH  27  33
ENDBRANCH   5  26
BRANCH   4  40
HETATM   40  O   UNL     1       4.856   2.870  22.366  0.00  0.00    -0.360 OA
HETATM   41  H   UNL     1       5.486   3.066  21.652  0.00  0.00     0.217 HD
ENDBRANCH   4  40
TORSDOF 8
ENDMDL
MODEL 9
REMARK VINA RESULT:    -8.947      3.235      5.799
REMARK INTER + INTRA:         -13.890
REMARK INTER:                 -11.866
REMARK INTRA:                  -2.024
REMARK UNBOUND:                -1.281
REMARK  8 active torsions:
REMARK  status: ('A' for Active; 'I' for Inactive)
REMARK       I    between atoms: C_2  and  N_3 
REMARK    1  A    between atoms: C_2  and  C_18 
REMARK    2  A    between atoms: N_3  and  C_4 
REMARK    3  A    between atoms: C_4  and  C_5 
REMARK    4  A    between atoms: C_6  and  C_7 
REMARK    5  A    between atoms: C_19  and  O_20 
REMARK    6  A    between atoms: C_22  and  O_23 
REMARK    7  A    between atoms: C_24  and  C_25 
REMARK    8  A    between atoms: N_26  and  C_27 
ROOT
HETATM    1  C   UNL     1       4.445   7.312  22.111  0.00  0.00     0.066 C 
HETATM    2  C   UNL     1       5.611   6.622  21.760  0.00  0.00     0.084 C 
HETATM    3  C   UNL     1       5.927   6.432  20.423  0.00  0.00     0.075 C 
HETATM    4  C   UNL     1       5.035   6.854  19.437  0.00  0.00     0.082 C 
HETATM    5  C   UNL     1       3.784   7.424  19.757  0.00  0.00     0.046 C 
HETATM    6  C   UNL     1       3.500   7.649  21.113  0.00  0.00     0.038 C 
ENDROOT
BRANCH   1   7
HETATM    7  C   UNL     1       4.144   7.689  23.516  0.00  0.00     0.256 C 
HETATM    8  O   UNL     1       4.624   8.736  23.926  0.00  0.00    -0.267 OA
HETATM    9  N   UNL     1       3.345   6.850  24.304  0.00  0.00    -0.348 N 
HETATM   10  C   UNL     1       2.860   5.510  23.934  0.00  0.00     0.153 C 
BRANCH   9  11
HETATM   11  C   UNL     1       3.084   7.251  25.699  0.00  0.00     0.165 C 
BRANCH  11  12
HETATM   12  C   UNL     1       1.792   8.039  25.920  0.00  0.00    -0.029 A 
HETATM   13  C   UNL     1       1.255   8.326  27.212  0.00  0.00    -0.017 A 
HETATM   14  C   UNL     1       0.046   9.072  27.249  0.00  0.00     0.013 A 
HETATM   15  C   UNL     1      -0.615   9.507  26.097  0.00  0.00     0.001 A 
HETATM   16  C   UNL     1      -0.102   9.202  24.856  0.00  0.00     0.001 A 
HETATM   17  C   UNL     1       1.070   8.461  24.773  0.00  0.00     0.010 A 
BRANCH  13  18
HETATM   18  C   UNL     1       1.823   7.854  28.513  0.00  0.00    -0.008 A 
HETATM   19  C   UNL     1       1.678   6.561  29.017  0.00  0.00     0.128 A 
HETATM   20  N   UNL     1       2.093   6.126  30.236  0.00  0.00    -0.272 NA
HETATM   21  C   UNL     1       2.767   7.007  30.997  0.00  0.00     0.116 A 
HETATM   22  C   UNL     1       3.076   8.283  30.574  0.00  0.00     0.020 A 
HETATM   23  C   UNL     1       2.592   8.704  29.332  0.00  0.00     0.015 A 
ENDBRANCH  13  18
ENDBRANCH  11  12
ENDBRANCH   9  11
ENDBRANCH   1   7
BRANCH   2  24
HETATM   24  O   UNL     1       6.511   6.119  22.661  0.00  0.00    -0.360 OA
HETATM   25  H   UNL     1       7.357   5.942  22.209  0.00  0.00     0.217 HD
ENDBRANCH   2  24
BRANCH   5  26
HETATM   26  C   UNL     1       2.760   7.565  18.673  0.00  0.00     0.172 A 
HETATM   27  N   UNL     1       2.092   6.552  18.024  0.00  0.00    -0.244 N 
HETATM   28  C   UNL     1       1.370   7.172  17.026  0.00  0.00     0.349 A 
HETATM   29  O   UNL     1       0.609   6.697  16.199  0.00  0.00    -0.245 OA
HETATM   30  N   UNL     1       1.636   8.525  17.155  0.00  0.00    -0.226 N 
HETATM   31  N   UNL     1       2.507   8.748  18.169  0.00  0.00    -0.151 NA
HETATM   32  H   UNL     1       1.218   9.269  16.614  0.00  0.00     0.194 HD
BRANCH  27  33
HETATM   33  C   UNL     1       1.996   5.166  18.253  0.00  0.00     0.051 C 
HETATM   34  C   UNL     1       1.001   4.591  19.058  0.00  0.00    -0.035 C 
HETATM   35  C   UNL     1      -0.239   5.329  19.489  0.00  0.00     0.050 C 
HETATM   36  C   UNL     1       1.030   3.202  19.297  0.00  0.00     0.009 C 
HETATM   37  C   UNL     1       1.966   2.383  18.670  0.00  0.00     0.001 C 
HETATM   38  C   UNL     1       2.872   2.938  17.770  0.00  0.00     0.002 C 
HETATM   39  C   UNL     1       2.887   4.319  17.567  0.00  0.00     0.031 C 
ENDBRANCH  27  33
ENDBRANCH   5  26
BRANCH   4  40
HETATM   40  O   UNL     1       5.431   6.708  18.134  0.00  0.00    -0.360 OA
HETATM   41  H   UNL     1       6.403   6.678  18.102  0.00  0.00     0.217 HD
ENDBRANCH   4  40
TORSDOF 8
ENDMDL
