MODEL 1
REMARK VINA RESULT:    -7.504      0.000      0.000
REMARK INTER + INTRA:         -10.770
REMARK INTER:                  -9.524
REMARK INTRA:                  -1.245
REMARK UNBOUND:                -1.073
REMARK  5 active torsions:
REMARK  status: ('A' for Active; 'I' for Inactive)
REMARK    1  A    between atoms: N8_1  and  C24_2 
REMARK    2  A    between atoms: N8_1  and  C7_8 
REMARK    3  A    between atoms: C2_13  and  N1_14 
REMARK    4  A    between atoms: N1_14  and  C17_15 
REMARK    5  A    between atoms: C14_16  and  C13_19 
ROOT
ATOM      1  C17 FTA A   1       4.900  15.172  21.981  1.00  0.00     0.142 C 
ATOM      2  C14 FTA A   1       3.789  15.911  22.173  1.00  0.00     0.158 C 
ATOM      3  C18 FTA A   1       3.896  17.327  22.450  1.00  0.00     0.069 C 
ATOM      4  N21 FTA A   1       4.136  18.442  22.722  1.00  0.00    -0.197 NA
ENDROOT
BRANCH   2   5
ATOM      5  C13 FTA A   1       2.460  15.265  22.082  1.00  0.00     0.197 A 
ATOM      6  N15 FTA A   1       1.942  14.320  22.965  1.00  0.00    -0.093 NA
ATOM      7  N19 FTA A   1       0.693  13.943  22.489  1.00  0.00    -0.231 N 
ATOM      8  N20 FTA A   1       0.423  14.637  21.319  1.00  0.00    -0.017 NA
ATOM      9  H15 FTA A   1       0.067  13.256  22.934  1.00  0.00     0.200 HD
ATOM     10  N16 FTA A   1       1.513  15.466  21.070  1.00  0.00    -0.090 NA
ENDBRANCH   2   5
BRANCH   1  11
ATOM     11  N1  FTA A   1       5.071  14.053  22.711  1.00  0.00    -0.389 N 
ATOM     12  H11 FTA A   1       5.129  14.156  23.734  1.00  0.00     0.159 HD
BRANCH  11  13
ATOM     13  C2  FTA A   1       5.178  12.740  22.176  1.00  0.00     0.028 A 
ATOM     14  C4  FTA A   1       4.436  12.326  21.073  1.00  0.00     0.031 A 
ATOM     15  C6  FTA A   1       4.413  10.965  20.741  1.00  0.00     0.031 A 
ATOM     16  C7  FTA A   1       5.107  10.011  21.480  1.00  0.00     0.032 A 
ATOM     17  C5  FTA A   1       5.860  10.441  22.558  1.00  0.00     0.031 A 
ATOM     18  C3  FTA A   1       5.885  11.784  22.912  1.00  0.00     0.031 A 
BRANCH  16  19
ATOM     19  N8  FTA A   1       4.933   8.616  21.293  1.00  0.00    -0.356 N 
ATOM     20  H1  FTA A   1       5.766   8.066  21.038  1.00  0.00     0.166 HD
BRANCH  19  21
ATOM     21  C24 FTA A   1       3.699   7.911  21.429  1.00  0.00     0.032 A 
ATOM     22  C26 FTA A   1       3.134   7.237  20.372  1.00  0.00     0.029 A 
ATOM     23  C28 FTA A   1       1.859   6.723  20.520  1.00  0.00     0.002 A 
ATOM     24  C30 FTA A   1       1.146   6.834  21.701  1.00  0.00     0.000 A 
ATOM     25  C29 FTA A   1       1.713   7.470  22.774  1.00  0.00     0.002 A 
ATOM     26  C27 FTA A   1       3.002   7.995  22.626  1.00  0.00     0.029 A 
ENDBRANCH  19  21
ENDBRANCH  16  19
ENDBRANCH  11  13
ENDBRANCH   1  11
TORSDOF 5
ENDMDL
MODEL 2
REMARK VINA RESULT:    -7.469      2.271      3.158
REMARK INTER + INTRA:         -10.725
REMARK INTER:                  -9.526
REMARK INTRA:                  -1.199
REMARK UNBOUND:                -1.073
REMARK  5 active torsions:
REMARK  status: ('A' for Active; 'I' for Inactive)
REMARK    1  A    between atoms: N8_1  and  C24_2 
REMARK    2  A    between atoms: N8_1  and  C7_8 
REMARK    3  A    between atoms: C2_13  and  N1_14 
REMARK    4  A    between atoms: N1_14  and  C17_15 
REMARK    5  A    between atoms: C14_16  and  C13_19 
ROOT
ATOM      1  C17 FTA A   1       3.248  15.028  23.459  1.00  0.00     0.142 C 
ATOM      2  C14 FTA A   1       3.743  15.670  22.382  1.00  0.00     0.158 C 
ATOM      3  C18 FTA A   1       3.995  17.093  22.435  1.00  0.00     0.069 C 
ATOM      4  N21 FTA A   1       4.094  18.250  22.603  1.00  0.00    -0.197 NA
ENDROOT
BRANCH   2   5
ATOM      5  C13 FTA A   1       4.039  14.902  21.150  1.00  0.00     0.197 A 
ATOM      6  N15 FTA A   1       4.427  13.566  21.088  1.00  0.00    -0.093 NA
ATOM      7  N19 FTA A   1       4.648  13.257  19.752  1.00  0.00    -0.231 N 
ATOM      8  N20 FTA A   1       4.405  14.382  18.978  1.00  0.00    -0.017 NA
ATOM      9  H15 FTA A   1       4.945  12.338  19.392  1.00  0.00     0.200 HD
ATOM     10  N16 FTA A   1       4.017  15.401  19.842  1.00  0.00    -0.090 NA
ENDBRANCH   2   5
BRANCH   1  11
ATOM     11  N1  FTA A   1       2.143  14.271  23.317  1.00  0.00    -0.389 N 
ATOM     12  H11 FTA A   1       1.308  14.720  22.913  1.00  0.00     0.159 HD
BRANCH  11  13
ATOM     13  C2  FTA A   1       2.041  12.901  23.681  1.00  0.00     0.028 A 
ATOM     14  C4  FTA A   1       3.116  12.194  24.214  1.00  0.00     0.031 A 
ATOM     15  C6  FTA A   1       3.021  10.801  24.333  1.00  0.00     0.031 A 
ATOM     16  C7  FTA A   1       1.886  10.099  23.935  1.00  0.00     0.032 A 
ATOM     17  C5  FTA A   1       0.818  10.819  23.430  1.00  0.00     0.031 A 
ATOM     18  C3  FTA A   1       0.897  12.199  23.291  1.00  0.00     0.031 A 
BRANCH  16  19
ATOM     19  N8  FTA A   1       1.846   8.684  23.851  1.00  0.00    -0.356 N 
ATOM     20  H1  FTA A   1       1.538   8.170  24.689  1.00  0.00     0.166 HD
BRANCH  19  21
ATOM     21  C24 FTA A   1       2.199   7.913  22.702  1.00  0.00     0.032 A 
ATOM     22  C26 FTA A   1       3.509   7.750  22.317  1.00  0.00     0.029 A 
ATOM     23  C28 FTA A   1       3.772   7.142  21.105  1.00  0.00     0.002 A 
ATOM     24  C30 FTA A   1       2.768   6.664  20.280  1.00  0.00     0.000 A 
ATOM     25  C29 FTA A   1       1.461   6.786  20.669  1.00  0.00     0.002 A 
ATOM     26  C27 FTA A   1       1.191   7.405  21.895  1.00  0.00     0.029 A 
ENDBRANCH  19  21
ENDBRANCH  16  19
ENDBRANCH  11  13
ENDBRANCH   1  11
TORSDOF 5
ENDMDL
MODEL 3
REMARK VINA RESULT:    -7.308      2.680      3.616
REMARK INTER + INTRA:         -10.517
REMARK INTER:                  -9.317
REMARK INTRA:                  -1.199
REMARK UNBOUND:                -1.073
REMARK  5 active torsions:
REMARK  status: ('A' for Active; 'I' for Inactive)
REMARK    1  A    between atoms: N8_1  and  C24_2 
REMARK    2  A    between atoms: N8_1  and  C7_8 
REMARK    3  A    between atoms: C2_13  and  N1_14 
REMARK    4  A    between atoms: N1_14  and  C17_15 
REMARK    5  A    between atoms: C14_16  and  C13_19 
ROOT
ATOM      1  C17 FTA A   1       2.842  15.609  21.323  1.00  0.00     0.142 C 
ATOM      2  C14 FTA A   1       2.577  15.818  20.018  1.00  0.00     0.158 C 
ATOM      3  C18 FTA A   1       3.067  17.008  19.357  1.00  0.00     0.069 C 
ATOM      4  N21 FTA A   1       3.476  18.037  18.971  1.00  0.00    -0.197 NA
ENDROOT
BRANCH   2   5
ATOM      5  C13 FTA A   1       1.794  14.811  19.264  1.00  0.00     0.197 A 
ATOM      6  N15 FTA A   1       0.424  14.584  19.375  1.00  0.00    -0.093 NA
ATOM      7  N19 FTA A   1       0.106  13.528  18.531  1.00  0.00    -0.231 N 
ATOM      8  N20 FTA A   1       1.259  13.090  17.896  1.00  0.00    -0.017 NA
ATOM      9  H15 FTA A   1      -0.835  13.132  18.397  1.00  0.00     0.200 HD
ATOM     10  N16 FTA A   1       2.305  13.892  18.341  1.00  0.00    -0.090 NA
ENDBRANCH   2   5
BRANCH   1  11
ATOM     11  N1  FTA A   1       1.821  15.349  22.162  1.00  0.00    -0.389 N 
ATOM     12  H11 FTA A   1       1.095  16.073  22.267  1.00  0.00     0.159 HD
BRANCH  11  13
ATOM     13  C2  FTA A   1       1.668  14.152  22.913  1.00  0.00     0.028 A 
ATOM     14  C4  FTA A   1       2.748  13.509  23.512  1.00  0.00     0.031 A 
ATOM     15  C6  FTA A   1       2.568  12.223  24.037  1.00  0.00     0.031 A 
ATOM     16  C7  FTA A   1       1.343  11.564  23.977  1.00  0.00     0.032 A 
ATOM     17  C5  FTA A   1       0.273  12.226  23.402  1.00  0.00     0.031 A 
ATOM     18  C3  FTA A   1       0.434  13.496  22.863  1.00  0.00     0.031 A 
BRANCH  16  19
ATOM     19  N8  FTA A   1       1.189  10.193  24.309  1.00  0.00    -0.356 N 
ATOM     20  H1  FTA A   1       0.809   9.973  25.241  1.00  0.00     0.166 HD
BRANCH  19  21
ATOM     21  C24 FTA A   1       1.517   9.095  23.458  1.00  0.00     0.032 A 
ATOM     22  C26 FTA A   1       0.695   8.715  22.423  1.00  0.00     0.029 A 
ATOM     23  C28 FTA A   1       0.979   7.543  21.748  1.00  0.00     0.002 A 
ATOM     24  C30 FTA A   1       2.077   6.757  22.054  1.00  0.00     0.000 A 
ATOM     25  C29 FTA A   1       2.925   7.145  23.057  1.00  0.00     0.002 A 
ATOM     26  C27 FTA A   1       2.637   8.329  23.745  1.00  0.00     0.029 A 
ENDBRANCH  19  21
ENDBRANCH  16  19
ENDBRANCH  11  13
ENDBRANCH   1  11
TORSDOF 5
ENDMDL
MODEL 4
REMARK VINA RESULT:    -7.295      1.493      2.176
REMARK INTER + INTRA:         -10.500
REMARK INTER:                  -9.156
REMARK INTRA:                  -1.344
REMARK UNBOUND:                -1.073
REMARK  5 active torsions:
REMARK  status: ('A' for Active; 'I' for Inactive)
REMARK    1  A    between atoms: N8_1  and  C24_2 
REMARK    2  A    between atoms: N8_1  and  C7_8 
REMARK    3  A    between atoms: C2_13  and  N1_14 
REMARK    4  A    between atoms: N1_14  and  C17_15 
REMARK    5  A    between atoms: C14_16  and  C13_19 
ROOT
ATOM      1  C17 FTA A   1       4.826  14.128  23.759  1.00  0.00     0.142 C 
ATOM      2  C14 FTA A   1       3.597  13.745  24.160  1.00  0.00     0.158 C 
ATOM      3  C18 FTA A   1       3.426  13.054  25.420  1.00  0.00     0.069 C 
ATOM      4  N21 FTA A   1       3.445  12.457  26.428  1.00  0.00    -0.197 NA
ENDROOT
BRANCH   2   5
ATOM      5  C13 FTA A   1       2.425  14.051  23.308  1.00  0.00     0.197 A 
ATOM      6  N15 FTA A   1       2.281  15.157  22.473  1.00  0.00    -0.093 NA
ATOM      7  N19 FTA A   1       1.021  15.083  21.895  1.00  0.00    -0.231 N 
ATOM      8  N20 FTA A   1       0.373  13.947  22.359  1.00  0.00    -0.017 NA
ATOM      9  H15 FTA A   1       0.629  15.763  21.228  1.00  0.00     0.200 HD
ATOM     10  N16 FTA A   1       1.246  13.300  23.227  1.00  0.00    -0.090 NA
ENDBRANCH   2   5
BRANCH   1  11
ATOM     11  N1  FTA A   1       5.255  13.765  22.535  1.00  0.00    -0.389 N 
ATOM     12  H11 FTA A   1       5.543  14.514  21.890  1.00  0.00     0.159 HD
BRANCH  11  13
ATOM     13  C2  FTA A   1       5.341  12.425  22.067  1.00  0.00     0.028 A 
ATOM     14  C4  FTA A   1       4.581  11.965  20.994  1.00  0.00     0.031 A 
ATOM     15  C6  FTA A   1       4.540  10.589  20.731  1.00  0.00     0.031 A 
ATOM     16  C7  FTA A   1       5.233   9.665  21.510  1.00  0.00     0.032 A 
ATOM     17  C5  FTA A   1       6.003  10.141  22.556  1.00  0.00     0.031 A 
ATOM     18  C3  FTA A   1       6.046  11.500  22.842  1.00  0.00     0.031 A 
BRANCH  16  19
ATOM     19  N8  FTA A   1       5.042   8.265  21.395  1.00  0.00    -0.356 N 
ATOM     20  H1  FTA A   1       5.884   7.678  21.313  1.00  0.00     0.166 HD
BRANCH  19  21
ATOM     21  C24 FTA A   1       3.777   7.601  21.384  1.00  0.00     0.032 A 
ATOM     22  C26 FTA A   1       3.274   7.029  20.239  1.00  0.00     0.029 A 
ATOM     23  C28 FTA A   1       1.976   6.556  20.251  1.00  0.00     0.002 A 
ATOM     24  C30 FTA A   1       1.176   6.610  21.380  1.00  0.00     0.000 A 
ATOM     25  C29 FTA A   1       1.679   7.142  22.537  1.00  0.00     0.002 A 
ATOM     26  C27 FTA A   1       2.992   7.625  22.527  1.00  0.00     0.029 A 
ENDBRANCH  19  21
ENDBRANCH  16  19
ENDBRANCH  11  13
ENDBRANCH   1  11
TORSDOF 5
ENDMDL
MODEL 5
REMARK VINA RESULT:    -7.271      2.259      3.039
REMARK INTER + INTRA:         -10.468
REMARK INTER:                  -9.278
REMARK INTRA:                  -1.190
REMARK UNBOUND:                -1.073
REMARK  5 active torsions:
REMARK  status: ('A' for Active; 'I' for Inactive)
REMARK    1  A    between atoms: N8_1  and  C24_2 
REMARK    2  A    between atoms: N8_1  and  C7_8 
REMARK    3  A    between atoms: C2_13  and  N1_14 
REMARK    4  A    between atoms: N1_14  and  C17_15 
REMARK    5  A    between atoms: C14_16  and  C13_19 
ROOT
ATOM      1  C17 FTA A   1       2.842  14.918  22.185  1.00  0.00     0.142 C 
ATOM      2  C14 FTA A   1       2.420  15.529  21.060  1.00  0.00     0.158 C 
ATOM      3  C18 FTA A   1       2.836  16.884  20.768  1.00  0.00     0.069 C 
ATOM      4  N21 FTA A   1       3.204  17.994  20.691  1.00  0.00    -0.197 NA
ENDROOT
BRANCH   2   5
ATOM      5  C13 FTA A   1       1.541  14.797  20.119  1.00  0.00     0.197 A 
ATOM      6  N15 FTA A   1       1.467  13.413  19.971  1.00  0.00    -0.093 NA
ATOM      7  N19 FTA A   1       0.557  13.150  18.955  1.00  0.00    -0.231 N 
ATOM      8  N20 FTA A   1       0.063  14.350  18.464  1.00  0.00    -0.017 NA
ATOM      9  H15 FTA A   1       0.292  12.213  18.619  1.00  0.00     0.200 HD
ATOM     10  N16 FTA A   1       0.664  15.372  19.192  1.00  0.00    -0.090 NA
ENDBRANCH   2   5
BRANCH   1  11
ATOM     11  N1  FTA A   1       1.929  14.370  23.010  1.00  0.00    -0.389 N 
ATOM     12  H11 FTA A   1       1.174  14.979  23.357  1.00  0.00     0.159 HD
BRANCH  11  13
ATOM     13  C2  FTA A   1       1.927  13.014  23.437  1.00  0.00     0.028 A 
ATOM     14  C4  FTA A   1       3.097  12.346  23.789  1.00  0.00     0.031 A 
ATOM     15  C6  FTA A   1       3.058  10.958  23.977  1.00  0.00     0.031 A 
ATOM     16  C7  FTA A   1       1.886  10.223  23.820  1.00  0.00     0.032 A 
ATOM     17  C5  FTA A   1       0.726  10.904  23.495  1.00  0.00     0.031 A 
ATOM     18  C3  FTA A   1       0.747  12.278  23.291  1.00  0.00     0.031 A 
BRANCH  16  19
ATOM     19  N8  FTA A   1       1.864   8.805  23.799  1.00  0.00    -0.356 N 
ATOM     20  H1  FTA A   1       1.617   8.323  24.675  1.00  0.00     0.166 HD
BRANCH  19  21
ATOM     21  C24 FTA A   1       2.156   7.991  22.663  1.00  0.00     0.032 A 
ATOM     22  C26 FTA A   1       3.449   7.735  22.273  1.00  0.00     0.029 A 
ATOM     23  C28 FTA A   1       3.662   7.087  21.071  1.00  0.00     0.002 A 
ATOM     24  C30 FTA A   1       2.623   6.660  20.263  1.00  0.00     0.000 A 
ATOM     25  C29 FTA A   1       1.330   6.875  20.658  1.00  0.00     0.002 A 
ATOM     26  C27 FTA A   1       1.110   7.535  21.873  1.00  0.00     0.029 A 
ENDBRANCH  19  21
ENDBRANCH  16  19
ENDBRANCH  11  13
ENDBRANCH   1  11
TORSDOF 5
ENDMDL
MODEL 6
REMARK VINA RESULT:    -7.142      2.522      3.912
REMARK INTER + INTRA:         -10.303
REMARK INTER:                  -8.931
REMARK INTRA:                  -1.371
REMARK UNBOUND:                -1.073
REMARK  5 active torsions:
REMARK  status: ('A' for Active; 'I' for Inactive)
REMARK    1  A    between atoms: N8_1  and  C24_2 
REMARK    2  A    between atoms: N8_1  and  C7_8 
REMARK    3  A    between atoms: C2_13  and  N1_14 
REMARK    4  A    between atoms: N1_14  and  C17_15 
REMARK    5  A    between atoms: C14_16  and  C13_19 
ROOT
ATOM      1  C17 FTA A   1       0.883  14.902  21.615  1.00  0.00     0.142 C 
ATOM      2  C14 FTA A   1       1.497  14.567  20.463  1.00  0.00     0.158 C 
ATOM      3  C18 FTA A   1       0.777  13.841  19.440  1.00  0.00     0.069 C 
ATOM      4  N21 FTA A   1       0.092  13.207  18.730  1.00  0.00    -0.197 NA
ENDROOT
BRANCH   2   5
ATOM      5  C13 FTA A   1       2.908  14.962  20.249  1.00  0.00     0.197 A 
ATOM      6  N15 FTA A   1       3.677  15.756  21.096  1.00  0.00    -0.093 NA
ATOM      7  N19 FTA A   1       4.922  15.918  20.502  1.00  0.00    -0.231 N 
ATOM      8  N20 FTA A   1       4.940  15.238  19.293  1.00  0.00    -0.017 NA
ATOM      9  H15 FTA A   1       5.706  16.458  20.895  1.00  0.00     0.200 HD
ATOM     10  N16 FTA A   1       3.696  14.635  19.139  1.00  0.00    -0.090 NA
ENDBRANCH   2   5
BRANCH   1  11
ATOM     11  N1  FTA A   1       1.459  14.562  22.784  1.00  0.00    -0.389 N 
ATOM     12  H11 FTA A   1       1.815  15.324  23.379  1.00  0.00     0.159 HD
BRANCH  11  13
ATOM     13  C2  FTA A   1       1.613  13.231  23.260  1.00  0.00     0.028 A 
ATOM     14  C4  FTA A   1       2.864  12.644  23.428  1.00  0.00     0.031 A 
ATOM     15  C6  FTA A   1       2.941  11.267  23.676  1.00  0.00     0.031 A 
ATOM     16  C7  FTA A   1       1.806  10.464  23.757  1.00  0.00     0.032 A 
ATOM     17  C5  FTA A   1       0.569  11.067  23.613  1.00  0.00     0.031 A 
ATOM     18  C3  FTA A   1       0.472  12.429  23.353  1.00  0.00     0.031 A 
BRANCH  16  19
ATOM     19  N8  FTA A   1       1.866   9.048  23.797  1.00  0.00    -0.356 N 
ATOM     20  H1  FTA A   1       1.699   8.594  24.707  1.00  0.00     0.166 HD
BRANCH  19  21
ATOM     21  C24 FTA A   1       2.139   8.200  22.681  1.00  0.00     0.032 A 
ATOM     22  C26 FTA A   1       3.425   7.873  22.322  1.00  0.00     0.029 A 
ATOM     23  C28 FTA A   1       3.629   7.194  21.136  1.00  0.00     0.002 A 
ATOM     24  C30 FTA A   1       2.585   6.805  20.313  1.00  0.00     0.000 A 
ATOM     25  C29 FTA A   1       1.296   7.092  20.679  1.00  0.00     0.002 A 
ATOM     26  C27 FTA A   1       1.087   7.783  21.878  1.00  0.00     0.029 A 
ENDBRANCH  19  21
ENDBRANCH  16  19
ENDBRANCH  11  13
ENDBRANCH   1  11
TORSDOF 5
ENDMDL
MODEL 7
REMARK VINA RESULT:    -7.090      2.328      3.937
REMARK INTER + INTRA:         -10.234
REMARK INTER:                  -9.167
REMARK INTRA:                  -1.067
REMARK UNBOUND:                -1.073
REMARK  5 active torsions:
REMARK  status: ('A' for Active; 'I' for Inactive)
REMARK    1  A    between atoms: N8_1  and  C24_2 
REMARK    2  A    between atoms: N8_1  and  C7_8 
REMARK    3  A    between atoms: C2_13  and  N1_14 
REMARK    4  A    between atoms: N1_14  and  C17_15 
REMARK    5  A    between atoms: C14_16  and  C13_19 
ROOT
ATOM      1  C17 FTA A   1       1.806  15.329  20.883  1.00  0.00     0.142 C 
ATOM      2  C14 FTA A   1       3.043  15.824  20.682  1.00  0.00     0.158 C 
ATOM      3  C18 FTA A   1       3.985  15.110  19.847  1.00  0.00     0.069 C 
ATOM      4  N21 FTA A   1       4.656  14.400  19.198  1.00  0.00    -0.197 NA
ENDROOT
BRANCH   2   5
ATOM      5  C13 FTA A   1       3.425  17.109  21.310  1.00  0.00     0.197 A 
ATOM      6  N15 FTA A   1       3.460  18.353  20.683  1.00  0.00    -0.093 NA
ATOM      7  N19 FTA A   1       3.913  19.278  21.614  1.00  0.00    -0.231 N 
ATOM      8  N20 FTA A   1       4.165  18.630  22.814  1.00  0.00    -0.017 NA
ATOM      9  H15 FTA A   1       4.042  20.286  21.441  1.00  0.00     0.200 HD
ATOM     10  N16 FTA A   1       3.852  17.287  22.631  1.00  0.00    -0.090 NA
ENDBRANCH   2   5
BRANCH   1  11
ATOM     11  N1  FTA A   1       1.362  15.177  22.145  1.00  0.00    -0.389 N 
ATOM     12  H11 FTA A   1       0.899  15.985  22.588  1.00  0.00     0.159 HD
BRANCH  11  13
ATOM     13  C2  FTA A   1       1.483  13.988  22.914  1.00  0.00     0.028 A 
ATOM     14  C4  FTA A   1       2.715  13.517  23.362  1.00  0.00     0.031 A 
ATOM     15  C6  FTA A   1       2.792  12.230  23.911  1.00  0.00     0.031 A 
ATOM     16  C7  FTA A   1       1.677  11.404  24.021  1.00  0.00     0.032 A 
ATOM     17  C5  FTA A   1       0.456  11.896  23.595  1.00  0.00     0.031 A 
ATOM     18  C3  FTA A   1       0.360  13.164  23.036  1.00  0.00     0.031 A 
BRANCH  16  19
ATOM     19  N8  FTA A   1       1.766  10.033  24.375  1.00  0.00    -0.356 N 
ATOM     20  H1  FTA A   1       1.661   9.795  25.372  1.00  0.00     0.166 HD
BRANCH  19  21
ATOM     21  C24 FTA A   1       1.988   8.957  23.464  1.00  0.00     0.032 A 
ATOM     22  C26 FTA A   1       0.953   8.376  22.769  1.00  0.00     0.029 A 
ATOM     23  C28 FTA A   1       1.208   7.231  22.038  1.00  0.00     0.002 A 
ATOM     24  C30 FTA A   1       2.470   6.668  21.955  1.00  0.00     0.000 A 
ATOM     25  C29 FTA A   1       3.516   7.259  22.611  1.00  0.00     0.002 A 
ATOM     26  C27 FTA A   1       3.261   8.416  23.355  1.00  0.00     0.029 A 
ENDBRANCH  19  21
ENDBRANCH  16  19
ENDBRANCH  11  13
ENDBRANCH   1  11
TORSDOF 5
ENDMDL
MODEL 8
REMARK VINA RESULT:    -7.010      2.884      7.281
REMARK INTER + INTRA:         -10.132
REMARK INTER:                  -9.059
REMARK INTRA:                  -1.073
REMARK UNBOUND:                -1.073
REMARK  5 active torsions:
REMARK  status: ('A' for Active; 'I' for Inactive)
REMARK    1  A    between atoms: N8_1  and  C24_2 
REMARK    2  A    between atoms: N8_1  and  C7_8 
REMARK    3  A    between atoms: C2_13  and  N1_14 
REMARK    4  A    between atoms: N1_14  and  C17_15 
REMARK    5  A    between atoms: C14_16  and  C13_19 
ROOT
ATOM      1  C17 FTA A   1       2.190   8.825  23.739  1.00  0.00     0.142 C 
ATOM      2  C14 FTA A   1       3.254   8.193  23.204  1.00  0.00     0.158 C 
ATOM      3  C18 FTA A   1       3.466   6.784  23.456  1.00  0.00     0.069 C 
ATOM      4  N21 FTA A   1       3.542   5.663  23.790  1.00  0.00    -0.197 NA
ENDROOT
BRANCH   2   5
ATOM      5  C13 FTA A   1       4.194   8.950  22.344  1.00  0.00     0.197 A 
ATOM      6  N15 FTA A   1       5.577   9.012  22.495  1.00  0.00    -0.093 NA
ATOM      7  N19 FTA A   1       6.067   9.862  21.512  1.00  0.00    -0.231 N 
ATOM      8  N20 FTA A   1       5.008  10.335  20.751  1.00  0.00    -0.017 NA
ATOM      9  H15 FTA A   1       7.058  10.104  21.370  1.00  0.00     0.200 HD
ATOM     10  N16 FTA A   1       3.846   9.762  21.259  1.00  0.00    -0.090 NA
ENDBRANCH   2   5
BRANCH   1  11
ATOM     11  N1  FTA A   1       2.391   9.950  24.450  1.00  0.00    -0.389 N 
ATOM     12  H11 FTA A   1       2.887   9.863  25.349  1.00  0.00     0.159 HD
BRANCH  11  13
ATOM     13  C2  FTA A   1       1.972  11.250  24.056  1.00  0.00     0.028 A 
ATOM     14  C4  FTA A   1       0.630  11.568  23.859  1.00  0.00     0.031 A 
ATOM     15  C6  FTA A   1       0.302  12.788  23.252  1.00  0.00     0.031 A 
ATOM     16  C7  FTA A   1       1.276  13.693  22.837  1.00  0.00     0.032 A 
ATOM     17  C5  FTA A   1       2.603  13.374  23.062  1.00  0.00     0.031 A 
ATOM     18  C3  FTA A   1       2.949  12.163  23.650  1.00  0.00     0.031 A 
BRANCH  16  19
ATOM     19  N8  FTA A   1       0.981  14.827  22.038  1.00  0.00    -0.356 N 
ATOM     20  H1  FTA A   1       0.713  15.693  22.528  1.00  0.00     0.166 HD
BRANCH  19  21
ATOM     21  C24 FTA A   1       1.025  14.868  20.612  1.00  0.00     0.032 A 
ATOM     22  C26 FTA A   1       1.475  15.978  19.936  1.00  0.00     0.029 A 
ATOM     23  C28 FTA A   1       1.330  16.021  18.562  1.00  0.00     0.002 A 
ATOM     24  C30 FTA A   1       0.779  14.976  17.841  1.00  0.00     0.000 A 
ATOM     25  C29 FTA A   1       0.362  13.849  18.498  1.00  0.00     0.002 A 
ATOM     26  C27 FTA A   1       0.504  13.804  19.889  1.00  0.00     0.029 A 
ENDBRANCH  19  21
ENDBRANCH  16  19
ENDBRANCH  11  13
ENDBRANCH   1  11
TORSDOF 5
ENDMDL
MODEL 9
REMARK VINA RESULT:    -6.965      2.377      3.231
REMARK INTER + INTRA:         -10.073
REMARK INTER:                  -8.828
REMARK INTRA:                  -1.245
REMARK UNBOUND:                -1.073
REMARK  5 active torsions:
REMARK  status: ('A' for Active; 'I' for Inactive)
REMARK    1  A    between atoms: N8_1  and  C24_2 
REMARK    2  A    between atoms: N8_1  and  C7_8 
REMARK    3  A    between atoms: C2_13  and  N1_14 
REMARK    4  A    between atoms: N1_14  and  C17_15 
REMARK    5  A    between atoms: C14_16  and  C13_19 
ROOT
ATOM      1  C17 FTA A   1       3.513  15.785  22.410  1.00  0.00     0.142 C 
ATOM      2  C14 FTA A   1       2.872  15.435  21.277  1.00  0.00     0.158 C 
ATOM      3  C18 FTA A   1       1.426  15.413  21.236  1.00  0.00     0.069 C 
ATOM      4  N21 FTA A   1       0.261  15.385  21.366  1.00  0.00    -0.197 NA
ENDROOT
BRANCH   2   5
ATOM      5  C13 FTA A   1       3.660  15.089  20.072  1.00  0.00     0.197 A 
ATOM      6  N15 FTA A   1       4.138  13.824  19.737  1.00  0.00    -0.093 NA
ATOM      7  N19 FTA A   1       4.862  13.949  18.559  1.00  0.00    -0.231 N 
ATOM      8  N20 FTA A   1       4.845  15.276  18.153  1.00  0.00    -0.017 NA
ATOM      9  H15 FTA A   1       5.336  13.180  18.064  1.00  0.00     0.200 HD
ATOM     10  N16 FTA A   1       4.091  15.983  19.084  1.00  0.00    -0.090 NA
ENDBRANCH   2   5
BRANCH   1  11
ATOM     11  N1  FTA A   1       4.455  14.960  22.907  1.00  0.00    -0.389 N 
ATOM     12  H11 FTA A   1       5.430  15.291  22.897  1.00  0.00     0.159 HD
BRANCH  11  13
ATOM     13  C2  FTA A   1       4.205  13.668  23.444  1.00  0.00     0.028 A 
ATOM     14  C4  FTA A   1       4.885  12.537  23.000  1.00  0.00     0.031 A 
ATOM     15  C6  FTA A   1       4.434  11.272  23.401  1.00  0.00     0.031 A 
ATOM     16  C7  FTA A   1       3.325  11.109  24.228  1.00  0.00     0.032 A 
ATOM     17  C5  FTA A   1       2.676  12.243  24.680  1.00  0.00     0.031 A 
ATOM     18  C3  FTA A   1       3.099  13.506  24.284  1.00  0.00     0.031 A 
BRANCH  16  19
ATOM     19  N8  FTA A   1       2.728   9.846  24.474  1.00  0.00    -0.356 N 
ATOM     20  H1  FTA A   1       2.636   9.551  25.457  1.00  0.00     0.166 HD
BRANCH  19  21
ATOM     21  C24 FTA A   1       2.244   8.951  23.473  1.00  0.00     0.032 A 
ATOM     22  C26 FTA A   1       1.067   9.188  22.803  1.00  0.00     0.029 A 
ATOM     23  C28 FTA A   1       0.567   8.202  21.974  1.00  0.00     0.002 A 
ATOM     24  C30 FTA A   1       1.223   7.000  21.770  1.00  0.00     0.000 A 
ATOM     25  C29 FTA A   1       2.415   6.767  22.401  1.00  0.00     0.002 A 
ATOM     26  C27 FTA A   1       2.922   7.762  23.245  1.00  0.00     0.029 A 
ENDBRANCH  19  21
ENDBRANCH  16  19
ENDBRANCH  11  13
ENDBRANCH   1  11
TORSDOF 5
ENDMDL
