MODEL 1
REMARK VINA RESULT:    -9.917      0.000      0.000
REMARK INTER + INTRA:         -12.646
REMARK INTER:                 -11.783
REMARK INTRA:                  -0.863
REMARK UNBOUND:                -0.990
REMARK  3 active torsions:
REMARK  status: ('A' for Active; 'I' for Inactive)
REMARK       I    between atoms: C_2  and  N_3 
REMARK    1  A    between atoms: C_2  and  C_26 
REMARK    2  A    between atoms: N_3  and  C_4 
REMARK    3  A    between atoms: C_16  and  C_17 
ROOT
HETATM    1  C   UNL     1       7.157  13.986  22.151  0.00  0.00     0.153 A 
HETATM    2  C   UNL     1       6.479  12.806  21.493  0.00  0.00    -0.020 A 
HETATM    3  C   UNL     1       7.096  11.780  20.783  0.00  0.00     0.010 A 
HETATM    4  C   UNL     1       6.292  10.810  20.193  0.00  0.00     0.001 A 
HETATM    5  C   UNL     1       4.901  10.898  20.290  0.00  0.00     0.001 A 
HETATM    6  C   UNL     1       4.294  11.945  20.999  0.00  0.00     0.013 A 
HETATM    7  C   UNL     1       5.076  12.891  21.644  0.00  0.00    -0.016 A 
HETATM    8  C   UNL     1       4.748  14.056  22.479  0.00  0.00    -0.003 A 
HETATM    9  C   UNL     1       5.978  14.714  22.774  0.00  0.00    -0.019 A 
HETATM   10  C   UNL     1       6.043  15.888  23.513  0.00  0.00     0.010 A 
HETATM   11  C   UNL     1       4.858  16.426  23.992  0.00  0.00     0.002 A 
HETATM   12  C   UNL     1       3.635  15.781  23.742  0.00  0.00     0.016 A 
HETATM   13  C   UNL     1       3.550  14.582  22.991  0.00  0.00     0.022 A 
ENDROOT
BRANCH   1  14
HETATM   14  N   UNL     1       8.122  13.560  23.136  0.00  0.00    -0.344 N 
HETATM   15  C   UNL     1       9.308  14.235  23.308  0.00  0.00     0.252 C 
HETATM   16  O   UNL     1       9.634  15.213  22.644  0.00  0.00    -0.268 OA
HETATM   17  H   UNL     1       7.909  12.721  23.656  0.00  0.00     0.163 HD
BRANCH  15  18
HETATM   18  C   UNL     1      10.242  13.695  24.327  0.00  0.00     0.034 A 
HETATM   19  C   UNL     1       9.812  12.881  25.375  0.00  0.00     0.036 A 
HETATM   20  C   UNL     1      10.762  12.440  26.281  0.00  0.00     0.117 A 
HETATM   21  N   UNL     1      12.073  12.751  26.206  0.00  0.00    -0.273 NA
HETATM   22  C   UNL     1      12.458  13.554  25.191  0.00  0.00     0.117 A 
HETATM   23  C   UNL     1      11.588  14.050  24.239  0.00  0.00     0.036 A 
ENDBRANCH  15  18
ENDBRANCH   1  14
BRANCH  13  24
HETATM   24  C   UNL     1       2.236  13.946  22.823  0.00  0.00     0.140 C 
HETATM   25  N   UNL     1       1.487  13.418  23.860  0.00  0.00    -0.337 N 
HETATM   26  C   UNL     1       0.275  13.007  23.366  0.00  0.00     0.080 A 
HETATM   27  H   UNL     1       1.761  13.409  24.831  0.00  0.00     0.167 HD
HETATM   28  C   UNL     1      -0.859  12.467  23.944  0.00  0.00     0.148 A 
HETATM   29  C   UNL     1       0.351  13.277  22.010  0.00  0.00     0.088 A 
HETATM   30  N   UNL     1      -1.940  12.245  23.155  0.00  0.00    -0.271 NA
HETATM   31  C   UNL     1      -1.874  12.550  21.836  0.00  0.00     0.118 A 
HETATM   32  C   UNL     1      -0.756  13.058  21.195  0.00  0.00     0.053 A 
HETATM   33  N   UNL     1       1.588  13.769  21.688  0.00  0.00    -0.228 NA
ENDBRANCH  13  24
TORSDOF 3
ENDMDL
MODEL 2
REMARK VINA RESULT:    -8.943      2.664      8.662
REMARK INTER + INTRA:         -11.501
REMARK INTER:                 -10.870
REMARK INTRA:                  -0.631
REMARK UNBOUND:                -0.990
REMARK  3 active torsions:
REMARK  status: ('A' for Active; 'I' for Inactive)
REMARK       I    between atoms: C_2  and  N_3 
REMARK    1  A    between atoms: C_2  and  C_26 
REMARK    2  A    between atoms: N_3  and  C_4 
REMARK    3  A    between atoms: C_16  and  C_17 
ROOT
HETATM    1  C   UNL     1       3.536  12.814  24.397  0.00  0.00     0.153 A 
HETATM    2  C   UNL     1       4.468  11.642  24.193  0.00  0.00    -0.020 A 
HETATM    3  C   UNL     1       4.179  10.299  24.418  0.00  0.00     0.010 A 
HETATM    4  C   UNL     1       5.194   9.365  24.234  0.00  0.00     0.001 A 
HETATM    5  C   UNL     1       6.475   9.786  23.864  0.00  0.00     0.001 A 
HETATM    6  C   UNL     1       6.752  11.144  23.653  0.00  0.00     0.013 A 
HETATM    7  C   UNL     1       5.743  12.086  23.775  0.00  0.00    -0.016 A 
HETATM    8  C   UNL     1       5.709  13.544  23.584  0.00  0.00    -0.003 A 
HETATM    9  C   UNL     1       4.405  13.982  23.960  0.00  0.00    -0.019 A 
HETATM   10  C   UNL     1       4.028  15.318  23.948  0.00  0.00     0.010 A 
HETATM   11  C   UNL     1       4.962  16.257  23.535  0.00  0.00     0.002 A 
HETATM   12  C   UNL     1       6.244  15.850  23.129  0.00  0.00     0.016 A 
HETATM   13  C   UNL     1       6.645  14.491  23.135  0.00  0.00     0.022 A 
ENDROOT
BRANCH   1  14
HETATM   14  N   UNL     1       2.343  12.687  23.594  0.00  0.00    -0.344 N 
HETATM   15  C   UNL     1       1.203  13.396  23.897  0.00  0.00     0.252 C 
HETATM   16  O   UNL     1       1.111  14.155  24.856  0.00  0.00    -0.268 OA
HETATM   17  H   UNL     1       2.369  12.024  22.834  0.00  0.00     0.163 HD
BRANCH  15  18
HETATM   18  C   UNL     1       0.024  13.168  23.024  0.00  0.00     0.034 A 
HETATM   19  C   UNL     1       0.066  13.381  21.646  0.00  0.00     0.036 A 
HETATM   20  C   UNL     1      -1.094  13.153  20.924  0.00  0.00     0.117 A 
HETATM   21  N   UNL     1      -2.253  12.737  21.475  0.00  0.00    -0.273 NA
HETATM   22  C   UNL     1      -2.268  12.555  22.813  0.00  0.00     0.117 A 
HETATM   23  C   UNL     1      -1.167  12.760  23.623  0.00  0.00     0.036 A 
ENDBRANCH  15  18
ENDBRANCH   1  14
BRANCH  13  24
HETATM   24  C   UNL     1       7.987  14.148  22.643  0.00  0.00     0.140 C 
HETATM   25  N   UNL     1       9.164  14.628  23.190  0.00  0.00    -0.337 N 
HETATM   26  C   UNL     1      10.222  14.023  22.562  0.00  0.00     0.080 A 
HETATM   27  H   UNL     1       9.227  15.263  23.972  0.00  0.00     0.167 HD
HETATM   28  C   UNL     1      11.594  14.080  22.732  0.00  0.00     0.148 A 
HETATM   29  C   UNL     1       9.634  13.205  21.614  0.00  0.00     0.088 A 
HETATM   30  N   UNL     1      12.371  13.268  21.973  0.00  0.00    -0.271 NA
HETATM   31  C   UNL     1      11.786  12.438  21.074  0.00  0.00     0.118 A 
HETATM   32  C   UNL     1      10.424  12.363  20.835  0.00  0.00     0.053 A 
HETATM   33  N   UNL     1       8.273  13.362  21.623  0.00  0.00    -0.228 NA
ENDBRANCH  13  24
TORSDOF 3
ENDMDL
MODEL 3
REMARK VINA RESULT:    -8.500      3.779      8.595
REMARK INTER + INTRA:         -10.981
REMARK INTER:                 -10.061
REMARK INTRA:                  -0.920
REMARK UNBOUND:                -0.990
REMARK  3 active torsions:
REMARK  status: ('A' for Active; 'I' for Inactive)
REMARK       I    between atoms: C_2  and  N_3 
REMARK    1  A    between atoms: C_2  and  C_26 
REMARK    2  A    between atoms: N_3  and  C_4 
REMARK    3  A    between atoms: C_16  and  C_17 
ROOT
HETATM    1  C   UNL     1       5.883  10.472  22.216  0.00  0.00     0.153 A 
HETATM    2  C   UNL     1       7.223   9.981  22.712  0.00  0.00    -0.020 A 
HETATM    3  C   UNL     1       7.719   8.683  22.626  0.00  0.00     0.010 A 
HETATM    4  C   UNL     1       8.955   8.409  23.203  0.00  0.00     0.001 A 
HETATM    5  C   UNL     1       9.653   9.416  23.877  0.00  0.00     0.001 A 
HETATM    6  C   UNL     1       9.133  10.715  23.965  0.00  0.00     0.013 A 
HETATM    7  C   UNL     1       7.931  11.026  23.349  0.00  0.00    -0.016 A 
HETATM    8  C   UNL     1       7.163  12.274  23.230  0.00  0.00    -0.003 A 
HETATM    9  C   UNL     1       5.943  11.949  22.566  0.00  0.00    -0.019 A 
HETATM   10  C   UNL     1       4.948  12.886  22.322  0.00  0.00     0.010 A 
HETATM   11  C   UNL     1       5.167  14.194  22.730  0.00  0.00     0.002 A 
HETATM   12  C   UNL     1       6.373  14.548  23.358  0.00  0.00     0.016 A 
HETATM   13  C   UNL     1       7.399  13.605  23.615  0.00  0.00     0.022 A 
ENDROOT
BRANCH   1  14
HETATM   14  N   UNL     1       5.731  10.251  20.797  0.00  0.00    -0.344 N 
HETATM   15  C   UNL     1       5.063   9.148  20.317  0.00  0.00     0.252 C 
HETATM   16  O   UNL     1       4.574   8.285  21.037  0.00  0.00    -0.268 OA
HETATM   17  H   UNL     1       6.176  10.913  20.178  0.00  0.00     0.163 HD
BRANCH  15  18
HETATM   18  C   UNL     1       4.991   9.001  18.841  0.00  0.00     0.034 A 
HETATM   19  C   UNL     1       4.482  10.004  18.017  0.00  0.00     0.036 A 
HETATM   20  C   UNL     1       4.446   9.762  16.654  0.00  0.00     0.117 A 
HETATM   21  N   UNL     1       4.876   8.617  16.082  0.00  0.00    -0.273 NA
HETATM   22  C   UNL     1       5.349   7.658  16.907  0.00  0.00     0.117 A 
HETATM   23  C   UNL     1       5.422   7.799  18.279  0.00  0.00     0.036 A 
ENDBRANCH  15  18
ENDBRANCH   1  14
BRANCH  13  24
HETATM   24  C   UNL     1       8.651  14.072  24.228  0.00  0.00     0.140 C 
HETATM   25  N   UNL     1       9.025  13.809  25.534  0.00  0.00    -0.337 N 
HETATM   26  C   UNL     1      10.290  14.296  25.738  0.00  0.00     0.080 A 
HETATM   27  H   UNL     1       8.482  13.280  26.200  0.00  0.00     0.167 HD
HETATM   28  C   UNL     1      11.162  14.270  26.811  0.00  0.00     0.148 A 
HETATM   29  C   UNL     1      10.630  14.879  24.530  0.00  0.00     0.088 A 
HETATM   30  N   UNL     1      12.404  14.791  26.644  0.00  0.00    -0.271 NA
HETATM   31  C   UNL     1      12.746  15.323  25.445  0.00  0.00     0.118 A 
HETATM   32  C   UNL     1      11.904  15.410  24.349  0.00  0.00     0.053 A 
HETATM   33  N   UNL     1       9.582  14.806  23.651  0.00  0.00    -0.228 NA
ENDBRANCH  13  24
TORSDOF 3
ENDMDL
MODEL 4
REMARK VINA RESULT:    -8.475      3.665      8.641
REMARK INTER + INTRA:         -10.952
REMARK INTER:                  -9.990
REMARK INTRA:                  -0.962
REMARK UNBOUND:                -0.990
REMARK  3 active torsions:
REMARK  status: ('A' for Active; 'I' for Inactive)
REMARK       I    between atoms: C_2  and  N_3 
REMARK    1  A    between atoms: C_2  and  C_26 
REMARK    2  A    between atoms: N_3  and  C_4 
REMARK    3  A    between atoms: C_16  and  C_17 
ROOT
HETATM    1  C   UNL     1       5.892  11.801  20.646  0.00  0.00     0.153 A 
HETATM    2  C   UNL     1       5.436  11.932  22.080  0.00  0.00    -0.020 A 
HETATM    3  C   UNL     1       4.163  11.665  22.578  0.00  0.00     0.010 A 
HETATM    4  C   UNL     1       3.916  11.909  23.925  0.00  0.00     0.001 A 
HETATM    5  C   UNL     1       4.923  12.440  24.737  0.00  0.00     0.001 A 
HETATM    6  C   UNL     1       6.196  12.715  24.218  0.00  0.00     0.013 A 
HETATM    7  C   UNL     1       6.482  12.426  22.892  0.00  0.00    -0.016 A 
HETATM    8  C   UNL     1       7.702  12.558  22.083  0.00  0.00    -0.003 A 
HETATM    9  C   UNL     1       7.355  12.197  20.747  0.00  0.00    -0.019 A 
HETATM   10  C   UNL     1       8.261  12.248  19.696  0.00  0.00     0.010 A 
HETATM   11  C   UNL     1       9.559  12.652  19.970  0.00  0.00     0.002 A 
HETATM   12  C   UNL     1       9.936  12.984  21.282  0.00  0.00     0.016 A 
HETATM   13  C   UNL     1       9.025  12.937  22.367  0.00  0.00     0.022 A 
ENDROOT
BRANCH   1  14
HETATM   14  N   UNL     1       5.721  10.453  20.158  0.00  0.00    -0.344 N 
HETATM   15  C   UNL     1       5.474  10.205  18.827  0.00  0.00     0.252 C 
HETATM   16  O   UNL     1       5.366  11.086  17.981  0.00  0.00    -0.268 OA
HETATM   17  H   UNL     1       5.744   9.710  20.841  0.00  0.00     0.163 HD
BRANCH  15  18
HETATM   18  C   UNL     1       5.284   8.785  18.437  0.00  0.00     0.034 A 
HETATM   19  C   UNL     1       5.592   7.729  19.295  0.00  0.00     0.036 A 
HETATM   20  C   UNL     1       5.392   6.440  18.829  0.00  0.00     0.117 A 
HETATM   21  N   UNL     1       4.916   6.151  17.599  0.00  0.00    -0.273 NA
HETATM   22  C   UNL     1       4.643   7.193  16.785  0.00  0.00     0.117 A 
HETATM   23  C   UNL     1       4.812   8.514  17.152  0.00  0.00     0.036 A 
ENDBRANCH  15  18
ENDBRANCH   1  14
BRANCH  13  24
HETATM   24  C   UNL     1       9.517  13.248  23.717  0.00  0.00     0.140 C 
HETATM   25  N   UNL     1      10.210  12.358  24.519  0.00  0.00    -0.337 N 
HETATM   26  C   UNL     1      10.611  13.009  25.657  0.00  0.00     0.080 A 
HETATM   27  H   UNL     1      10.444  11.409  24.268  0.00  0.00     0.167 HD
HETATM   28  C   UNL     1      11.362  12.635  26.756  0.00  0.00     0.148 A 
HETATM   29  C   UNL     1      10.105  14.289  25.514  0.00  0.00     0.088 A 
HETATM   30  N   UNL     1      11.646  13.576  27.691  0.00  0.00    -0.271 NA
HETATM   31  C   UNL     1      11.183  14.839  27.526  0.00  0.00     0.118 A 
HETATM   32  C   UNL     1      10.397  15.262  26.466  0.00  0.00     0.053 A 
HETATM   33  N   UNL     1       9.369  14.388  24.364  0.00  0.00    -0.228 NA
ENDBRANCH  13  24
TORSDOF 3
ENDMDL
MODEL 5
REMARK VINA RESULT:    -8.404      2.712      8.380
REMARK INTER + INTRA:         -10.868
REMARK INTER:                 -10.764
REMARK INTRA:                  -0.104
REMARK UNBOUND:                -0.990
REMARK  3 active torsions:
REMARK  status: ('A' for Active; 'I' for Inactive)
REMARK       I    between atoms: C_2  and  N_3 
REMARK    1  A    between atoms: C_2  and  C_26 
REMARK    2  A    between atoms: N_3  and  C_4 
REMARK    3  A    between atoms: C_16  and  C_17 
ROOT
HETATM    1  C   UNL     1       3.563  12.909  22.075  0.00  0.00     0.153 A 
HETATM    2  C   UNL     1       4.042  13.948  23.061  0.00  0.00    -0.020 A 
HETATM    3  C   UNL     1       3.254  14.711  23.918  0.00  0.00     0.010 A 
HETATM    4  C   UNL     1       3.878  15.669  24.712  0.00  0.00     0.001 A 
HETATM    5  C   UNL     1       5.257  15.870  24.614  0.00  0.00     0.001 A 
HETATM    6  C   UNL     1       6.036  15.102  23.736  0.00  0.00     0.013 A 
HETATM    7  C   UNL     1       5.445  14.102  22.978  0.00  0.00    -0.016 A 
HETATM    8  C   UNL     1       5.984  13.125  22.021  0.00  0.00    -0.003 A 
HETATM    9  C   UNL     1       4.870  12.420  21.476  0.00  0.00    -0.019 A 
HETATM   10  C   UNL     1       5.005  11.444  20.498  0.00  0.00     0.010 A 
HETATM   11  C   UNL     1       6.282  11.137  20.052  0.00  0.00     0.002 A 
HETATM   12  C   UNL     1       7.399  11.793  20.594  0.00  0.00     0.016 A 
HETATM   13  C   UNL     1       7.281  12.792  21.593  0.00  0.00     0.022 A 
ENDROOT
BRANCH   1  14
HETATM   14  N   UNL     1       2.833  11.852  22.734  0.00  0.00    -0.344 N 
HETATM   15  C   UNL     1       3.429  11.070  23.698  0.00  0.00     0.252 C 
HETATM   16  O   UNL     1       4.597  11.197  24.046  0.00  0.00    -0.268 OA
HETATM   17  H   UNL     1       1.887  11.683  22.425  0.00  0.00     0.163 HD
BRANCH  15  18
HETATM   18  C   UNL     1       2.597   9.992  24.291  0.00  0.00     0.034 A 
HETATM   19  C   UNL     1       1.209  10.085  24.376  0.00  0.00     0.036 A 
HETATM   20  C   UNL     1       0.527   9.030  24.961  0.00  0.00     0.117 A 
HETATM   21  N   UNL     1       1.129   7.924  25.447  0.00  0.00    -0.273 NA
HETATM   22  C   UNL     1       2.475   7.870  25.366  0.00  0.00     0.117 A 
HETATM   23  C   UNL     1       3.247   8.871  24.806  0.00  0.00     0.036 A 
ENDBRANCH  15  18
ENDBRANCH   1  14
BRANCH  13  24
HETATM   24  C   UNL     1       8.505  13.390  22.143  0.00  0.00     0.140 C 
HETATM   25  N   UNL     1       9.285  12.805  23.126  0.00  0.00    -0.337 N 
HETATM   26  C   UNL     1      10.402  13.576  23.320  0.00  0.00     0.080 A 
HETATM   27  H   UNL     1       9.095  11.918  23.569  0.00  0.00     0.167 HD
HETATM   28  C   UNL     1      11.522  13.449  24.121  0.00  0.00     0.148 A 
HETATM   29  C   UNL     1      10.237  14.641  22.452  0.00  0.00     0.088 A 
HETATM   30  N   UNL     1      12.504  14.378  24.006  0.00  0.00    -0.271 NA
HETATM   31  C   UNL     1      12.356  15.397  23.124  0.00  0.00     0.118 A 
HETATM   32  C   UNL     1      11.243  15.595  22.324  0.00  0.00     0.053 A 
HETATM   33  N   UNL     1       9.032  14.551  21.807  0.00  0.00    -0.228 NA
ENDBRANCH  13  24
TORSDOF 3
ENDMDL
MODEL 6
REMARK VINA RESULT:    -8.335      2.037      9.038
REMARK INTER + INTRA:         -10.786
REMARK INTER:                  -9.735
REMARK INTRA:                  -1.051
REMARK UNBOUND:                -0.990
REMARK  3 active torsions:
REMARK  status: ('A' for Active; 'I' for Inactive)
REMARK       I    between atoms: C_2  and  N_3 
REMARK    1  A    between atoms: C_2  and  C_26 
REMARK    2  A    between atoms: N_3  and  C_4 
REMARK    3  A    between atoms: C_16  and  C_17 
ROOT
HETATM    1  C   UNL     1       3.208  13.543  22.116  0.00  0.00     0.153 A 
HETATM    2  C   UNL     1       3.919  14.413  23.128  0.00  0.00    -0.020 A 
HETATM    3  C   UNL     1       3.384  15.498  23.816  0.00  0.00     0.010 A 
HETATM    4  C   UNL     1       4.219  16.218  24.664  0.00  0.00     0.001 A 
HETATM    5  C   UNL     1       5.567  15.868  24.784  0.00  0.00     0.001 A 
HETATM    6  C   UNL     1       6.093  14.780  24.074  0.00  0.00     0.013 A 
HETATM    7  C   UNL     1       5.267  14.012  23.268  0.00  0.00    -0.016 A 
HETATM    8  C   UNL     1       5.504  12.815  22.448  0.00  0.00    -0.003 A 
HETATM    9  C   UNL     1       4.288  12.538  21.756  0.00  0.00    -0.019 A 
HETATM   10  C   UNL     1       4.161  11.494  20.850  0.00  0.00     0.010 A 
HETATM   11  C   UNL     1       5.263  10.681  20.629  0.00  0.00     0.002 A 
HETATM   12  C   UNL     1       6.464  10.913  21.320  0.00  0.00     0.016 A 
HETATM   13  C   UNL     1       6.612  11.973  22.248  0.00  0.00     0.022 A 
ENDROOT
BRANCH   1  14
HETATM   14  N   UNL     1       2.041  12.914  22.687  0.00  0.00    -0.344 N 
HETATM   15  C   UNL     1       0.773  13.270  22.286  0.00  0.00     0.252 C 
HETATM   16  O   UNL     1       0.545  14.137  21.450  0.00  0.00    -0.268 OA
HETATM   17  H   UNL     1       2.195  12.239  23.422  0.00  0.00     0.163 HD
BRANCH  15  18
HETATM   18  C   UNL     1      -0.357  12.581  22.959  0.00  0.00     0.034 A 
HETATM   19  C   UNL     1      -0.160  11.625  23.955  0.00  0.00     0.036 A 
HETATM   20  C   UNL     1      -1.282  11.031  24.509  0.00  0.00     0.117 A 
HETATM   21  N   UNL     1      -2.547  11.327  24.142  0.00  0.00    -0.273 NA
HETATM   22  C   UNL     1      -2.706  12.244  23.165  0.00  0.00     0.117 A 
HETATM   23  C   UNL     1      -1.653  12.890  22.545  0.00  0.00     0.036 A 
ENDBRANCH  15  18
ENDBRANCH   1  14
BRANCH  13  24
HETATM   24  C   UNL     1       7.887  12.110  22.968  0.00  0.00     0.140 C 
HETATM   25  N   UNL     1       9.017  12.711  22.444  0.00  0.00    -0.337 N 
HETATM   26  C   UNL     1       9.981  12.764  23.417  0.00  0.00     0.080 A 
HETATM   27  H   UNL     1       9.089  13.110  21.519  0.00  0.00     0.167 HD
HETATM   28  C   UNL     1      11.258  13.292  23.469  0.00  0.00     0.148 A 
HETATM   29  C   UNL     1       9.396  12.149  24.510  0.00  0.00     0.088 A 
HETATM   30  N   UNL     1      11.928  13.242  24.648  0.00  0.00    -0.271 NA
HETATM   31  C   UNL     1      11.334  12.675  25.727  0.00  0.00     0.118 A 
HETATM   32  C   UNL     1      10.074  12.099  25.725  0.00  0.00     0.053 A 
HETATM   33  N   UNL     1       8.150  11.681  24.187  0.00  0.00    -0.228 NA
ENDBRANCH  13  24
TORSDOF 3
ENDMDL
MODEL 7
REMARK VINA RESULT:    -8.119      4.829      7.236
REMARK INTER + INTRA:         -10.533
REMARK INTER:                  -9.506
REMARK INTRA:                  -1.027
REMARK UNBOUND:                -0.990
REMARK  3 active torsions:
REMARK  status: ('A' for Active; 'I' for Inactive)
REMARK       I    between atoms: C_2  and  N_3 
REMARK    1  A    between atoms: C_2  and  C_26 
REMARK    2  A    between atoms: N_3  and  C_4 
REMARK    3  A    between atoms: C_16  and  C_17 
ROOT
HETATM    1  C   UNL     1       6.124  10.608  20.373  0.00  0.00     0.153 A 
HETATM    2  C   UNL     1       6.156   9.321  21.165  0.00  0.00    -0.020 A 
HETATM    3  C   UNL     1       6.835   9.094  22.359  0.00  0.00     0.010 A 
HETATM    4  C   UNL     1       6.797   7.817  22.908  0.00  0.00     0.001 A 
HETATM    5  C   UNL     1       6.118   6.790  22.247  0.00  0.00     0.001 A 
HETATM    6  C   UNL     1       5.449   7.032  21.038  0.00  0.00     0.013 A 
HETATM    7  C   UNL     1       5.424   8.310  20.502  0.00  0.00    -0.016 A 
HETATM    8  C   UNL     1       4.792   8.877  19.302  0.00  0.00    -0.003 A 
HETATM    9  C   UNL     1       5.211  10.238  19.216  0.00  0.00    -0.019 A 
HETATM   10  C   UNL     1       4.838  11.074  18.173  0.00  0.00     0.010 A 
HETATM   11  C   UNL     1       4.009  10.560  17.187  0.00  0.00     0.002 A 
HETATM   12  C   UNL     1       3.556   9.232  17.263  0.00  0.00     0.016 A 
HETATM   13  C   UNL     1       3.927   8.365  18.321  0.00  0.00     0.022 A 
ENDROOT
BRANCH   1  14
HETATM   14  N   UNL     1       5.600  11.699  21.158  0.00  0.00    -0.344 N 
HETATM   15  C   UNL     1       6.381  12.788  21.474  0.00  0.00     0.252 C 
HETATM   16  O   UNL     1       7.553  12.902  21.135  0.00  0.00    -0.268 OA
HETATM   17  H   UNL     1       4.655  11.606  21.503  0.00  0.00     0.163 HD
BRANCH  15  18
HETATM   18  C   UNL     1       5.752  13.840  22.311  0.00  0.00     0.034 A 
HETATM   19  C   UNL     1       4.405  13.800  22.671  0.00  0.00     0.036 A 
HETATM   20  C   UNL     1       3.913  14.839  23.444  0.00  0.00     0.117 A 
HETATM   21  N   UNL     1       4.660  15.880  23.867  0.00  0.00    -0.273 NA
HETATM   22  C   UNL     1       5.956  15.900  23.490  0.00  0.00     0.117 A 
HETATM   23  C   UNL     1       6.542  14.916  22.716  0.00  0.00     0.036 A 
ENDBRANCH  15  18
ENDBRANCH   1  14
BRANCH  13  24
HETATM   24  C   UNL     1       3.363   7.007  18.352  0.00  0.00     0.140 C 
HETATM   25  N   UNL     1       2.207   6.658  19.026  0.00  0.00    -0.337 N 
HETATM   26  C   UNL     1       1.915   5.347  18.753  0.00  0.00     0.080 A 
HETATM   27  H   UNL     1       1.636   7.289  19.568  0.00  0.00     0.167 HD
HETATM   28  C   UNL     1       0.874   4.507  19.104  0.00  0.00     0.148 A 
HETATM   29  C   UNL     1       2.947   4.932  17.930  0.00  0.00     0.088 A 
HETATM   30  N   UNL     1       0.851   3.256  18.580  0.00  0.00    -0.271 NA
HETATM   31  C   UNL     1       1.844   2.868  17.742  0.00  0.00     0.118 A 
HETATM   32  C   UNL     1       2.929   3.651  17.384  0.00  0.00     0.053 A 
HETATM   33  N   UNL     1       3.865   5.935  17.769  0.00  0.00    -0.228 NA
ENDBRANCH  13  24
TORSDOF 3
ENDMDL
MODEL 8
REMARK VINA RESULT:    -8.098      3.647      5.762
REMARK INTER + INTRA:         -10.508
REMARK INTER:                  -9.519
REMARK INTRA:                  -0.990
REMARK UNBOUND:                -0.990
REMARK  3 active torsions:
REMARK  status: ('A' for Active; 'I' for Inactive)
REMARK       I    between atoms: C_2  and  N_3 
REMARK    1  A    between atoms: C_2  and  C_26 
REMARK    2  A    between atoms: N_3  and  C_4 
REMARK    3  A    between atoms: C_16  and  C_17 
ROOT
HETATM    1  C   UNL     1       7.476  10.954  23.823  0.00  0.00     0.153 A 
HETATM    2  C   UNL     1       6.411  11.640  22.998  0.00  0.00    -0.020 A 
HETATM    3  C   UNL     1       5.939  12.939  23.162  0.00  0.00     0.010 A 
HETATM    4  C   UNL     1       4.903  13.373  22.341  0.00  0.00     0.001 A 
HETATM    5  C   UNL     1       4.339  12.502  21.404  0.00  0.00     0.001 A 
HETATM    6  C   UNL     1       4.818  11.192  21.260  0.00  0.00     0.013 A 
HETATM    7  C   UNL     1       5.888  10.756  22.027  0.00  0.00    -0.016 A 
HETATM    8  C   UNL     1       6.626   9.486  22.080  0.00  0.00    -0.003 A 
HETATM    9  C   UNL     1       7.564   9.595  23.149  0.00  0.00    -0.019 A 
HETATM   10  C   UNL     1       8.407   8.555  23.518  0.00  0.00     0.010 A 
HETATM   11  C   UNL     1       8.338   7.371  22.799  0.00  0.00     0.002 A 
HETATM   12  C   UNL     1       7.446   7.247  21.721  0.00  0.00     0.016 A 
HETATM   13  C   UNL     1       6.578   8.298  21.330  0.00  0.00     0.022 A 
ENDROOT
BRANCH   1  14
HETATM   14  N   UNL     1       8.727  11.672  23.773  0.00  0.00    -0.344 N 
HETATM   15  C   UNL     1       9.070  12.571  24.758  0.00  0.00     0.252 C 
HETATM   16  O   UNL     1       8.352  12.834  25.715  0.00  0.00    -0.268 OA
HETATM   17  H   UNL     1       9.313  11.522  22.964  0.00  0.00     0.163 HD
BRANCH  15  18
HETATM   18  C   UNL     1      10.366  13.277  24.594  0.00  0.00     0.034 A 
HETATM   19  C   UNL     1      11.499  12.935  25.331  0.00  0.00     0.036 A 
HETATM   20  C   UNL     1      12.655  13.666  25.112  0.00  0.00     0.117 A 
HETATM   21  N   UNL     1      12.746  14.683  24.230  0.00  0.00    -0.273 NA
HETATM   22  C   UNL     1      11.628  15.002  23.543  0.00  0.00     0.117 A 
HETATM   23  C   UNL     1      10.425  14.339  23.691  0.00  0.00     0.036 A 
ENDBRANCH  15  18
ENDBRANCH   1  14
BRANCH  13  24
HETATM   24  C   UNL     1       5.715   8.102  20.157  0.00  0.00     0.140 C 
HETATM   25  N   UNL     1       4.498   7.445  20.185  0.00  0.00    -0.337 N 
HETATM   26  C   UNL     1       3.914   7.543  18.948  0.00  0.00     0.080 A 
HETATM   27  H   UNL     1       4.080   7.029  21.004  0.00  0.00     0.167 HD
HETATM   28  C   UNL     1       2.701   7.128  18.429  0.00  0.00     0.148 A 
HETATM   29  C   UNL     1       4.836   8.243  18.190  0.00  0.00     0.088 A 
HETATM   30  N   UNL     1       2.398   7.469  17.152  0.00  0.00    -0.271 NA
HETATM   31  C   UNL     1       3.287   8.191  16.427  0.00  0.00     0.118 A 
HETATM   32  C   UNL     1       4.530   8.602  16.880  0.00  0.00     0.053 A 
HETATM   33  N   UNL     1       5.964   8.499  18.924  0.00  0.00    -0.228 NA
ENDBRANCH  13  24
TORSDOF 3
ENDMDL
MODEL 9
REMARK VINA RESULT:    -8.096      4.232      9.196
REMARK INTER + INTRA:         -10.506
REMARK INTER:                  -9.495
REMARK INTRA:                  -1.011
REMARK UNBOUND:                -0.990
REMARK  3 active torsions:
REMARK  status: ('A' for Active; 'I' for Inactive)
REMARK       I    between atoms: C_2  and  N_3 
REMARK    1  A    between atoms: C_2  and  C_26 
REMARK    2  A    between atoms: N_3  and  C_4 
REMARK    3  A    between atoms: C_16  and  C_17 
ROOT
HETATM    1  C   UNL     1       5.670   9.598  23.141  0.00  0.00     0.153 A 
HETATM    2  C   UNL     1       5.728  11.094  22.932  0.00  0.00    -0.020 A 
HETATM    3  C   UNL     1       4.672  11.927  22.573  0.00  0.00     0.010 A 
HETATM    4  C   UNL     1       4.937  13.276  22.363  0.00  0.00     0.001 A 
HETATM    5  C   UNL     1       6.244  13.760  22.481  0.00  0.00     0.001 A 
HETATM    6  C   UNL     1       7.299  12.905  22.831  0.00  0.00     0.013 A 
HETATM    7  C   UNL     1       7.048  11.569  23.102  0.00  0.00    -0.016 A 
HETATM    8  C   UNL     1       7.913  10.457  23.522  0.00  0.00    -0.003 A 
HETATM    9  C   UNL     1       7.102   9.284  23.538  0.00  0.00    -0.019 A 
HETATM   10  C   UNL     1       7.604   8.027  23.849  0.00  0.00     0.010 A 
HETATM   11  C   UNL     1       8.949   7.922  24.172  0.00  0.00     0.002 A 
HETATM   12  C   UNL     1       9.764   9.066  24.194  0.00  0.00     0.016 A 
HETATM   13  C   UNL     1       9.268  10.356  23.880  0.00  0.00     0.022 A 
ENDROOT
BRANCH   1  14
HETATM   14  N   UNL     1       4.724   9.245  24.173  0.00  0.00    -0.344 N 
HETATM   15  C   UNL     1       4.016   8.066  24.116  0.00  0.00     0.252 C 
HETATM   16  O   UNL     1       4.120   7.257  23.201  0.00  0.00    -0.268 OA
HETATM   17  H   UNL     1       4.572   9.920  24.908  0.00  0.00     0.163 HD
BRANCH  15  18
HETATM   18  C   UNL     1       3.048   7.816  25.213  0.00  0.00     0.034 A 
HETATM   19  C   UNL     1       1.714   7.493  24.970  0.00  0.00     0.036 A 
HETATM   20  C   UNL     1       0.889   7.292  26.065  0.00  0.00     0.117 A 
HETATM   21  N   UNL     1       1.303   7.389  27.345  0.00  0.00    -0.273 NA
HETATM   22  C   UNL     1       2.597   7.718  27.550  0.00  0.00     0.117 A 
HETATM   23  C   UNL     1       3.498   7.944  26.527  0.00  0.00     0.036 A 
ENDBRANCH  15  18
ENDBRANCH   1  14
BRANCH  13  24
HETATM   24  C   UNL     1      10.178  11.507  23.981  0.00  0.00     0.140 C 
HETATM   25  N   UNL     1      10.848  12.067  22.907  0.00  0.00    -0.337 N 
HETATM   26  C   UNL     1      11.517  13.183  23.338  0.00  0.00     0.080 A 
HETATM   27  H   UNL     1      10.789  11.746  21.952  0.00  0.00     0.167 HD
HETATM   28  C   UNL     1      12.287  14.140  22.703  0.00  0.00     0.148 A 
HETATM   29  C   UNL     1      11.248  13.240  24.695  0.00  0.00     0.088 A 
HETATM   30  N   UNL     1      12.746  15.187  23.434  0.00  0.00    -0.271 NA
HETATM   31  C   UNL     1      12.445  15.259  24.754  0.00  0.00     0.118 A 
HETATM   32  C   UNL     1      11.710  14.314  25.450  0.00  0.00     0.053 A 
HETATM   33  N   UNL     1      10.500  12.159  25.081  0.00  0.00    -0.228 NA
ENDBRANCH  13  24
TORSDOF 3
ENDMDL
