MODEL 1
REMARK VINA RESULT:    -8.578      0.000      0.000
REMARK INTER + INTRA:         -13.544
REMARK INTER:                 -11.650
REMARK INTRA:                  -1.895
REMARK UNBOUND:                -2.208
REMARK  6 active torsions:
REMARK  status: ('A' for Active; 'I' for Inactive)
REMARK    1  A    between atoms: C_7  and  C_8 
REMARK    2  A    between atoms: C_8  and  C_9 
REMARK    3  A    between atoms: C_16  and  C_20 
REMARK    4  A    between atoms: C_17  and  O_19 
REMARK       I    between atoms: C_20  and  N_22 
REMARK    5  A    between atoms: N_22  and  C_24 
REMARK    6  A    between atoms: C_27  and  C_28 
ROOT
HETATM    1  C   UNL     1       0.146  14.872  22.760  0.00  0.00     0.071 A 
HETATM    2  N   UNL     1       1.149  15.645  23.210  0.00  0.00    -0.178 NA
HETATM    3  N   UNL     1       0.959  15.689  24.537  0.00  0.00    -0.277 N 
HETATM    4  H   UNL     1       1.607  16.231  25.097  0.00  0.00     0.189 HD
HETATM    5  C   UNL     1      -0.679  14.412  23.828  0.00  0.00     0.020 A 
HETATM    6  C   UNL     1      -0.168  15.039  24.960  0.00  0.00     0.065 A 
HETATM    7  C   UNL     1      -1.825  13.604  23.950  0.00  0.00     0.035 C 
HETATM    8  C   UNL     1      -2.453  13.497  25.205  0.00  0.00     0.066 C 
HETATM    9  C   UNL     1      -1.984  14.263  26.281  0.00  0.00     0.083 C 
HETATM   10  C   UNL     1      -0.795  14.991  26.206  0.00  0.00     0.069 C 
ENDROOT
BRANCH   8  11
HETATM   11  C   UNL     1      -3.644  12.619  25.389  0.00  0.00     0.260 C 
HETATM   12  O   UNL     1      -4.727  13.209  25.490  0.00  0.00    -0.267 OA
HETATM   13  N   UNL     1      -3.524  11.213  25.378  0.00  0.00    -0.318 N 
HETATM   14  C   UNL     1      -4.751  10.431  25.235  0.00  0.00     0.159 C 
BRANCH  13  15
HETATM   15  C   UNL     1      -2.312  10.490  25.627  0.00  0.00     0.037 A 
HETATM   16  C   UNL     1      -1.858  10.278  26.932  0.00  0.00     0.030 A 
HETATM   17  C   UNL     1      -0.615   9.688  27.174  0.00  0.00     0.017 A 
HETATM   18  C   UNL     1       0.204   9.274  26.119  0.00  0.00     0.009 A 
HETATM   19  C   UNL     1      -0.279   9.392  24.816  0.00  0.00     0.017 A 
HETATM   20  C   UNL     1      -1.539   9.984  24.571  0.00  0.00     0.030 A 
BRANCH  18  21
HETATM   21  C   UNL     1       1.561   8.743  26.475  0.00  0.00     0.155 C 
HETATM   22  O   UNL     1       1.643   7.816  27.287  0.00  0.00    -0.293 OA
HETATM   23  C   UNL     1       2.818   9.337  25.908  0.00  0.00     0.096 C 
ENDBRANCH  18  21
ENDBRANCH  13  15
ENDBRANCH   8  11
BRANCH   9  24
HETATM   24  O   UNL     1      -2.677  14.379  27.459  0.00  0.00    -0.360 OA
HETATM   25  H   UNL     1      -2.583  15.312  27.754  0.00  0.00     0.217 HD
ENDBRANCH   9  24
BRANCH   1  26
HETATM   26  C   UNL     1      -0.106  14.731  21.295  0.00  0.00     0.100 C 
BRANCH  26  27
HETATM   27  C   UNL     1      -1.515  15.120  20.903  0.00  0.00    -0.052 A 
HETATM   28  C   UNL     1      -2.554  14.223  20.620  0.00  0.00     0.014 A 
HETATM   29  C   UNL     1      -3.773  14.671  20.090  0.00  0.00    -0.061 A 
HETATM   30  C   UNL     1      -4.791  13.682  19.604  0.00  0.00     0.048 C 
HETATM   31  C   UNL     1      -3.983  16.042  19.906  0.00  0.00     0.007 A 
HETATM   32  C   UNL     1      -2.988  16.954  20.243  0.00  0.00     0.001 A 
HETATM   33  C   UNL     1      -1.765  16.495  20.730  0.00  0.00     0.007 A 
ENDBRANCH  26  27
ENDBRANCH   1  26
TORSDOF 6
ENDMDL
MODEL 2
REMARK VINA RESULT:    -8.229      2.551      5.030
REMARK INTER + INTRA:         -13.083
REMARK INTER:                 -11.839
REMARK INTRA:                  -1.243
REMARK UNBOUND:                -2.208
REMARK  6 active torsions:
REMARK  status: ('A' for Active; 'I' for Inactive)
REMARK    1  A    between atoms: C_7  and  C_8 
REMARK    2  A    between atoms: C_8  and  C_9 
REMARK    3  A    between atoms: C_16  and  C_20 
REMARK    4  A    between atoms: C_17  and  O_19 
REMARK       I    between atoms: C_20  and  N_22 
REMARK    5  A    between atoms: N_22  and  C_24 
REMARK    6  A    between atoms: C_27  and  C_28 
ROOT
HETATM    1  C   UNL     1      -2.435  12.028  22.628  0.00  0.00     0.071 A 
HETATM    2  N   UNL     1      -2.993  10.837  22.351  0.00  0.00    -0.178 NA
HETATM    3  N   UNL     1      -3.381  10.372  23.548  0.00  0.00    -0.277 N 
HETATM    4  H   UNL     1      -3.832   9.465  23.586  0.00  0.00     0.189 HD
HETATM    5  C   UNL     1      -2.488  12.319  24.023  0.00  0.00     0.020 A 
HETATM    6  C   UNL     1      -3.031  11.176  24.598  0.00  0.00     0.065 A 
HETATM    7  C   UNL     1      -2.079  13.377  24.855  0.00  0.00     0.035 C 
HETATM    8  C   UNL     1      -2.180  13.226  26.251  0.00  0.00     0.066 C 
HETATM    9  C   UNL     1      -2.599  11.998  26.785  0.00  0.00     0.083 C 
HETATM   10  C   UNL     1      -3.101  10.976  25.978  0.00  0.00     0.069 C 
ENDROOT
BRANCH   8  11
HETATM   11  C   UNL     1      -1.797  14.336  27.168  0.00  0.00     0.260 C 
HETATM   12  O   UNL     1      -2.517  14.473  28.165  0.00  0.00    -0.267 OA
HETATM   13  N   UNL     1      -0.648  15.120  26.927  0.00  0.00    -0.318 N 
HETATM   14  C   UNL     1      -0.159  15.956  28.021  0.00  0.00     0.159 C 
BRANCH  13  15
HETATM   15  C   UNL     1      -0.001  15.260  25.656  0.00  0.00     0.037 A 
HETATM   16  C   UNL     1       1.257  14.695  25.425  0.00  0.00     0.030 A 
HETATM   17  C   UNL     1       1.947  14.938  24.235  0.00  0.00     0.017 A 
HETATM   18  C   UNL     1       1.392  15.737  23.231  0.00  0.00     0.009 A 
HETATM   19  C   UNL     1       0.098  16.227  23.409  0.00  0.00     0.017 A 
HETATM   20  C   UNL     1      -0.602  15.978  24.611  0.00  0.00     0.030 A 
BRANCH  18  21
HETATM   21  C   UNL     1       2.248  16.021  22.032  0.00  0.00     0.155 C 
HETATM   22  O   UNL     1       3.079  16.932  22.096  0.00  0.00    -0.293 OA
HETATM   23  C   UNL     1       2.089  15.260  20.747  0.00  0.00     0.096 C 
ENDBRANCH  18  21
ENDBRANCH  13  15
ENDBRANCH   8  11
BRANCH   9  24
HETATM   24  O   UNL     1      -2.509  11.708  28.122  0.00  0.00    -0.360 OA
HETATM   25  H   UNL     1      -1.636  11.279  28.262  0.00  0.00     0.217 HD
ENDBRANCH   9  24
BRANCH   1  26
HETATM   26  C   UNL     1      -1.704  12.788  21.570  0.00  0.00     0.100 C 
BRANCH  26  27
HETATM   27  C   UNL     1      -2.572  13.825  20.891  0.00  0.00    -0.052 A 
HETATM   28  C   UNL     1      -3.732  13.552  20.152  0.00  0.00     0.014 A 
HETATM   29  C   UNL     1      -4.369  14.556  19.408  0.00  0.00    -0.061 A 
HETATM   30  C   UNL     1      -5.482  14.202  18.466  0.00  0.00     0.048 C 
HETATM   31  C   UNL     1      -3.882  15.866  19.457  0.00  0.00     0.007 A 
HETATM   32  C   UNL     1      -2.771  16.171  20.237  0.00  0.00     0.001 A 
HETATM   33  C   UNL     1      -2.120  15.158  20.940  0.00  0.00     0.007 A 
ENDBRANCH  26  27
ENDBRANCH   1  26
TORSDOF 6
ENDMDL
MODEL 3
REMARK VINA RESULT:    -7.911      2.197      7.222
REMARK INTER + INTRA:         -12.663
REMARK INTER:                 -10.918
REMARK INTRA:                  -1.745
REMARK UNBOUND:                -2.208
REMARK  6 active torsions:
REMARK  status: ('A' for Active; 'I' for Inactive)
REMARK    1  A    between atoms: C_7  and  C_8 
REMARK    2  A    between atoms: C_8  and  C_9 
REMARK    3  A    between atoms: C_16  and  C_20 
REMARK    4  A    between atoms: C_17  and  O_19 
REMARK       I    between atoms: C_20  and  N_22 
REMARK    5  A    between atoms: N_22  and  C_24 
REMARK    6  A    between atoms: C_27  and  C_28 
ROOT
HETATM    1  C   UNL     1      -2.617  11.940  26.133  0.00  0.00     0.071 A 
HETATM    2  N   UNL     1      -3.369  12.360  27.165  0.00  0.00    -0.178 NA
HETATM    3  N   UNL     1      -2.927  13.603  27.407  0.00  0.00    -0.277 N 
HETATM    4  H   UNL     1      -3.355  14.125  28.163  0.00  0.00     0.189 HD
HETATM    5  C   UNL     1      -1.697  12.945  25.713  0.00  0.00     0.020 A 
HETATM    6  C   UNL     1      -1.869  13.981  26.625  0.00  0.00     0.065 A 
HETATM    7  C   UNL     1      -0.706  13.064  24.721  0.00  0.00     0.035 C 
HETATM    8  C   UNL     1       0.120  14.203  24.714  0.00  0.00     0.066 C 
HETATM    9  C   UNL     1       0.002  15.149  25.743  0.00  0.00     0.083 C 
HETATM   10  C   UNL     1      -1.036  15.100  26.675  0.00  0.00     0.069 C 
ENDROOT
BRANCH   8  11
HETATM   11  C   UNL     1       1.155  14.389  23.658  0.00  0.00     0.260 C 
HETATM   12  O   UNL     1       2.275  14.720  24.065  0.00  0.00    -0.267 OA
HETATM   13  N   UNL     1       0.867  14.134  22.300  0.00  0.00    -0.318 N 
HETATM   14  C   UNL     1       1.996  14.020  21.379  0.00  0.00     0.159 C 
BRANCH  13  15
HETATM   15  C   UNL     1      -0.448  14.107  21.730  0.00  0.00     0.037 A 
HETATM   16  C   UNL     1      -1.231  15.264  21.677  0.00  0.00     0.030 A 
HETATM   17  C   UNL     1      -2.557  15.216  21.242  0.00  0.00     0.017 A 
HETATM   18  C   UNL     1      -3.136  14.013  20.827  0.00  0.00     0.009 A 
HETATM   19  C   UNL     1      -2.337  12.870  20.785  0.00  0.00     0.017 A 
HETATM   20  C   UNL     1      -0.994  12.920  21.220  0.00  0.00     0.030 A 
BRANCH  18  21
HETATM   21  C   UNL     1      -4.594  14.042  20.471  0.00  0.00     0.155 C 
HETATM   22  O   UNL     1      -5.428  13.908  21.371  0.00  0.00    -0.293 OA
HETATM   23  C   UNL     1      -5.059  14.181  19.051  0.00  0.00     0.096 C 
ENDBRANCH  18  21
ENDBRANCH  13  15
ENDBRANCH   8  11
BRANCH   9  24
HETATM   24  O   UNL     1       0.913  16.158  25.924  0.00  0.00    -0.360 OA
HETATM   25  H   UNL     1       0.459  16.997  25.691  0.00  0.00     0.217 HD
ENDBRANCH   9  24
BRANCH   1  26
HETATM   26  C   UNL     1      -2.675  10.518  25.681  0.00  0.00     0.100 C 
BRANCH  26  27
HETATM   27  C   UNL     1      -1.341   9.812  25.799  0.00  0.00    -0.052 A 
HETATM   28  C   UNL     1      -0.544   9.400  24.722  0.00  0.00     0.014 A 
HETATM   29  C   UNL     1       0.585   8.594  24.924  0.00  0.00    -0.061 A 
HETATM   30  C   UNL     1       1.303   7.996  23.750  0.00  0.00     0.048 C 
HETATM   31  C   UNL     1       0.965   8.252  26.226  0.00  0.00     0.007 A 
HETATM   32  C   UNL     1       0.225   8.707  27.313  0.00  0.00     0.001 A 
HETATM   33  C   UNL     1      -0.920   9.473  27.099  0.00  0.00     0.007 A 
ENDBRANCH  26  27
ENDBRANCH   1  26
TORSDOF 6
ENDMDL
MODEL 4
REMARK VINA RESULT:    -7.899      2.424      5.496
REMARK INTER + INTRA:         -12.646
REMARK INTER:                 -10.743
REMARK INTRA:                  -1.903
REMARK UNBOUND:                -2.208
REMARK  6 active torsions:
REMARK  status: ('A' for Active; 'I' for Inactive)
REMARK    1  A    between atoms: C_7  and  C_8 
REMARK    2  A    between atoms: C_8  and  C_9 
REMARK    3  A    between atoms: C_16  and  C_20 
REMARK    4  A    between atoms: C_17  and  O_19 
REMARK       I    between atoms: C_20  and  N_22 
REMARK    5  A    between atoms: N_22  and  C_24 
REMARK    6  A    between atoms: C_27  and  C_28 
ROOT
HETATM    1  C   UNL     1       1.851  14.303  24.577  0.00  0.00     0.071 A 
HETATM    2  N   UNL     1       2.201  15.403  25.265  0.00  0.00    -0.178 NA
HETATM    3  N   UNL     1       1.185  15.590  26.121  0.00  0.00    -0.277 N 
HETATM    4  H   UNL     1       1.229  16.383  26.752  0.00  0.00     0.189 HD
HETATM    5  C   UNL     1       0.599  13.785  25.020  0.00  0.00     0.020 A 
HETATM    6  C   UNL     1       0.155  14.703  25.966  0.00  0.00     0.065 A 
HETATM    7  C   UNL     1      -0.226  12.696  24.681  0.00  0.00     0.035 C 
HETATM    8  C   UNL     1      -1.501  12.598  25.269  0.00  0.00     0.066 C 
HETATM    9  C   UNL     1      -1.958  13.627  26.106  0.00  0.00     0.083 C 
HETATM   10  C   UNL     1      -1.121  14.660  26.531  0.00  0.00     0.069 C 
ENDROOT
BRANCH   8  11
HETATM   11  C   UNL     1      -2.392  11.441  24.971  0.00  0.00     0.260 C 
HETATM   12  O   UNL     1      -2.200  10.432  25.661  0.00  0.00    -0.267 OA
HETATM   13  N   UNL     1      -3.418  11.538  24.007  0.00  0.00    -0.318 N 
HETATM   14  C   UNL     1      -4.442  10.496  24.003  0.00  0.00     0.159 C 
BRANCH  13  15
HETATM   15  C   UNL     1      -3.464  12.505  22.950  0.00  0.00     0.037 A 
HETATM   16  C   UNL     1      -4.292  13.628  23.040  0.00  0.00     0.030 A 
HETATM   17  C   UNL     1      -4.437  14.503  21.961  0.00  0.00     0.017 A 
HETATM   18  C   UNL     1      -3.745  14.293  20.765  0.00  0.00     0.009 A 
HETATM   19  C   UNL     1      -2.843  13.230  20.696  0.00  0.00     0.017 A 
HETATM   20  C   UNL     1      -2.692  12.348  21.789  0.00  0.00     0.030 A 
BRANCH  18  21
HETATM   21  C   UNL     1      -4.040  15.229  19.630  0.00  0.00     0.155 C 
HETATM   22  O   UNL     1      -4.741  14.828  18.696  0.00  0.00    -0.293 OA
HETATM   23  C   UNL     1      -3.469  16.616  19.578  0.00  0.00     0.096 C 
ENDBRANCH  18  21
ENDBRANCH  13  15
ENDBRANCH   8  11
BRANCH   9  24
HETATM   24  O   UNL     1      -3.260  13.707  26.530  0.00  0.00    -0.360 OA
HETATM   25  H   UNL     1      -3.809  13.880  25.733  0.00  0.00     0.217 HD
ENDBRANCH   9  24
BRANCH   1  26
HETATM   26  C   UNL     1       2.641  13.869  23.386  0.00  0.00     0.100 C 
BRANCH  26  27
HETATM   27  C   UNL     1       2.579  14.864  22.248  0.00  0.00    -0.052 A 
HETATM   28  C   UNL     1       1.441  15.591  21.869  0.00  0.00     0.014 A 
HETATM   29  C   UNL     1       1.428  16.352  20.691  0.00  0.00    -0.061 A 
HETATM   30  C   UNL     1       0.145  16.954  20.199  0.00  0.00     0.048 C 
HETATM   31  C   UNL     1       2.589  16.446  19.916  0.00  0.00     0.007 A 
HETATM   32  C   UNL     1       3.748  15.785  20.310  0.00  0.00     0.001 A 
HETATM   33  C   UNL     1       3.739  14.997  21.460  0.00  0.00     0.007 A 
ENDBRANCH  26  27
ENDBRANCH   1  26
TORSDOF 6
ENDMDL
MODEL 5
REMARK VINA RESULT:    -7.841      2.625      4.832
REMARK INTER + INTRA:         -12.570
REMARK INTER:                 -10.986
REMARK INTRA:                  -1.584
REMARK UNBOUND:                -2.208
REMARK  6 active torsions:
REMARK  status: ('A' for Active; 'I' for Inactive)
REMARK    1  A    between atoms: C_7  and  C_8 
REMARK    2  A    between atoms: C_8  and  C_9 
REMARK    3  A    between atoms: C_16  and  C_20 
REMARK    4  A    between atoms: C_17  and  O_19 
REMARK       I    between atoms: C_20  and  N_22 
REMARK    5  A    between atoms: N_22  and  C_24 
REMARK    6  A    between atoms: C_27  and  C_28 
ROOT
HETATM    1  C   UNL     1      -3.918  13.450  22.876  0.00  0.00     0.071 A 
HETATM    2  N   UNL     1      -4.825  14.247  23.465  0.00  0.00    -0.178 NA
HETATM    3  N   UNL     1      -4.719  13.954  24.770  0.00  0.00    -0.277 N 
HETATM    4  H   UNL     1      -5.325  14.440  25.421  0.00  0.00     0.189 HD
HETATM    5  C   UNL     1      -3.221  12.653  23.831  0.00  0.00     0.020 A 
HETATM    6  C   UNL     1      -3.835  12.947  25.045  0.00  0.00     0.065 A 
HETATM    7  C   UNL     1      -2.204  11.682  23.795  0.00  0.00     0.035 C 
HETATM    8  C   UNL     1      -1.875  10.994  24.978  0.00  0.00     0.066 C 
HETATM    9  C   UNL     1      -2.622  11.224  26.143  0.00  0.00     0.083 C 
HETATM   10  C   UNL     1      -3.565  12.250  26.224  0.00  0.00     0.069 C 
ENDROOT
BRANCH   8  11
HETATM   11  C   UNL     1      -0.776   9.987  24.995  0.00  0.00     0.260 C 
HETATM   12  O   UNL     1      -0.976   8.996  25.708  0.00  0.00    -0.267 OA
HETATM   13  N   UNL     1       0.374  10.147  24.192  0.00  0.00    -0.318 N 
HETATM   14  C   UNL     1       1.239   8.983  24.012  0.00  0.00     0.159 C 
BRANCH  13  15
HETATM   15  C   UNL     1       0.829  11.391  23.646  0.00  0.00     0.037 A 
HETATM   16  C   UNL     1       0.572  11.727  22.314  0.00  0.00     0.030 A 
HETATM   17  C   UNL     1       1.123  12.877  21.743  0.00  0.00     0.017 A 
HETATM   18  C   UNL     1       1.932  13.736  22.492  0.00  0.00     0.009 A 
HETATM   19  C   UNL     1       2.117  13.463  23.847  0.00  0.00     0.017 A 
HETATM   20  C   UNL     1       1.556  12.303  24.426  0.00  0.00     0.030 A 
BRANCH  18  21
HETATM   21  C   UNL     1       2.558  14.892  21.767  0.00  0.00     0.155 C 
HETATM   22  O   UNL     1       2.910  15.881  22.416  0.00  0.00    -0.293 OA
HETATM   23  C   UNL     1       2.722  14.895  20.275  0.00  0.00     0.096 C 
ENDBRANCH  18  21
ENDBRANCH  13  15
ENDBRANCH   8  11
BRANCH   9  24
HETATM   24  O   UNL     1      -2.505  10.436  27.260  0.00  0.00    -0.360 OA
HETATM   25  H   UNL     1      -3.214  10.716  27.881  0.00  0.00     0.217 HD
ENDBRANCH   9  24
BRANCH   1  26
HETATM   26  C   UNL     1      -3.856  13.340  21.387  0.00  0.00     0.100 C 
BRANCH  26  27
HETATM   27  C   UNL     1      -3.198  14.540  20.740  0.00  0.00    -0.052 A 
HETATM   28  C   UNL     1      -1.951  15.070  21.097  0.00  0.00     0.014 A 
HETATM   29  C   UNL     1      -1.505  16.290  20.566  0.00  0.00    -0.061 A 
HETATM   30  C   UNL     1      -0.267  16.940  21.112  0.00  0.00     0.048 C 
HETATM   31  C   UNL     1      -2.283  16.954  19.612  0.00  0.00     0.007 A 
HETATM   32  C   UNL     1      -3.494  16.410  19.196  0.00  0.00     0.001 A 
HETATM   33  C   UNL     1      -3.949  15.219  19.760  0.00  0.00     0.007 A 
ENDBRANCH  26  27
ENDBRANCH   1  26
TORSDOF 6
ENDMDL
MODEL 6
REMARK VINA RESULT:    -7.790      2.228      7.503
REMARK INTER + INTRA:         -12.503
REMARK INTER:                 -10.661
REMARK INTRA:                  -1.842
REMARK UNBOUND:                -2.208
REMARK  6 active torsions:
REMARK  status: ('A' for Active; 'I' for Inactive)
REMARK    1  A    between atoms: C_7  and  C_8 
REMARK    2  A    between atoms: C_8  and  C_9 
REMARK    3  A    between atoms: C_16  and  C_20 
REMARK    4  A    between atoms: C_17  and  O_19 
REMARK       I    between atoms: C_20  and  N_22 
REMARK    5  A    between atoms: N_22  and  C_24 
REMARK    6  A    between atoms: C_27  and  C_28 
ROOT
HETATM    1  C   UNL     1      -2.501  11.851  26.256  0.00  0.00     0.071 A 
HETATM    2  N   UNL     1      -3.254  12.352  27.250  0.00  0.00    -0.178 NA
HETATM    3  N   UNL     1      -2.841  13.623  27.364  0.00  0.00    -0.277 N 
HETATM    4  H   UNL     1      -3.275  14.207  28.070  0.00  0.00     0.189 HD
HETATM    5  C   UNL     1      -1.611  12.831  25.729  0.00  0.00     0.020 A 
HETATM    6  C   UNL     1      -1.800  13.946  26.537  0.00  0.00     0.065 A 
HETATM    7  C   UNL     1      -0.632  12.874  24.719  0.00  0.00     0.035 C 
HETATM    8  C   UNL     1       0.166  14.027  24.591  0.00  0.00     0.066 C 
HETATM    9  C   UNL     1       0.034  15.067  25.523  0.00  0.00     0.083 C 
HETATM   10  C   UNL     1      -0.995  15.085  26.468  0.00  0.00     0.069 C 
ENDROOT
BRANCH   8  11
HETATM   11  C   UNL     1       1.186  14.133  23.510  0.00  0.00     0.260 C 
HETATM   12  O   UNL     1       2.331  14.415  23.886  0.00  0.00    -0.267 OA
HETATM   13  N   UNL     1       0.857  13.859  22.165  0.00  0.00    -0.318 N 
HETATM   14  C   UNL     1       1.959  13.664  21.225  0.00  0.00     0.159 C 
BRANCH  13  15
HETATM   15  C   UNL     1      -0.469  13.888  21.622  0.00  0.00     0.037 A 
HETATM   16  C   UNL     1      -1.186  15.085  21.540  0.00  0.00     0.030 A 
HETATM   17  C   UNL     1      -2.522  15.097  21.133  0.00  0.00     0.017 A 
HETATM   18  C   UNL     1      -3.177  13.915  20.776  0.00  0.00     0.009 A 
HETATM   19  C   UNL     1      -2.446  12.727  20.762  0.00  0.00     0.017 A 
HETATM   20  C   UNL     1      -1.093  12.715  21.168  0.00  0.00     0.030 A 
BRANCH  18  21
HETATM   21  C   UNL     1      -4.638  14.014  20.448  0.00  0.00     0.155 C 
HETATM   22  O   UNL     1      -5.458  13.994  21.370  0.00  0.00    -0.293 OA
HETATM   23  C   UNL     1      -5.128  14.090  19.031  0.00  0.00     0.096 C 
ENDBRANCH  18  21
ENDBRANCH  13  15
ENDBRANCH   8  11
BRANCH   9  24
HETATM   24  O   UNL     1       0.922  16.109  25.594  0.00  0.00    -0.360 OA
HETATM   25  H   UNL     1       0.514  16.863  25.113  0.00  0.00     0.217 HD
ENDBRANCH   9  24
BRANCH   1  26
HETATM   26  C   UNL     1      -2.528  10.390  25.946  0.00  0.00     0.100 C 
BRANCH  26  27
HETATM   27  C   UNL     1      -1.301   9.662  26.452  0.00  0.00    -0.052 A 
HETATM   28  C   UNL     1      -0.997   9.428  27.800  0.00  0.00     0.014 A 
HETATM   29  C   UNL     1       0.248   8.907  28.181  0.00  0.00    -0.061 A 
HETATM   30  C   UNL     1       0.631   8.856  29.631  0.00  0.00     0.048 C 
HETATM   31  C   UNL     1       1.176   8.548  27.198  0.00  0.00     0.007 A 
HETATM   32  C   UNL     1       0.867   8.710  25.851  0.00  0.00     0.001 A 
HETATM   33  C   UNL     1      -0.357   9.268  25.484  0.00  0.00     0.007 A 
ENDBRANCH  26  27
ENDBRANCH   1  26
TORSDOF 6
ENDMDL
MODEL 7
REMARK VINA RESULT:    -7.698      2.429      4.499
REMARK INTER + INTRA:         -12.381
REMARK INTER:                 -10.173
REMARK INTRA:                  -2.208
REMARK UNBOUND:                -2.208
REMARK  6 active torsions:
REMARK  status: ('A' for Active; 'I' for Inactive)
REMARK    1  A    between atoms: C_7  and  C_8 
REMARK    2  A    between atoms: C_8  and  C_9 
REMARK    3  A    between atoms: C_16  and  C_20 
REMARK    4  A    between atoms: C_17  and  O_19 
REMARK       I    between atoms: C_20  and  N_22 
REMARK    5  A    between atoms: N_22  and  C_24 
REMARK    6  A    between atoms: C_27  and  C_28 
ROOT
HETATM    1  C   UNL     1      -0.223  16.533  22.075  0.00  0.00     0.071 A 
HETATM    2  N   UNL     1      -0.016  16.797  20.774  0.00  0.00    -0.178 NA
HETATM    3  N   UNL     1      -0.990  16.123  20.144  0.00  0.00    -0.277 N 
HETATM    4  H   UNL     1      -1.030  16.172  19.133  0.00  0.00     0.189 HD
HETATM    5  C   UNL     1      -1.357  15.690  22.264  0.00  0.00     0.020 A 
HETATM    6  C   UNL     1      -1.775  15.373  20.976  0.00  0.00     0.065 A 
HETATM    7  C   UNL     1      -2.022  15.113  23.362  0.00  0.00     0.035 C 
HETATM    8  C   UNL     1      -3.056  14.189  23.124  0.00  0.00     0.066 C 
HETATM    9  C   UNL     1      -3.342  13.793  21.809  0.00  0.00     0.083 C 
HETATM   10  C   UNL     1      -2.764  14.425  20.707  0.00  0.00     0.069 C 
ENDROOT
BRANCH   8  11
HETATM   11  C   UNL     1      -3.815  13.585  24.256  0.00  0.00     0.260 C 
HETATM   12  O   UNL     1      -4.770  14.252  24.671  0.00  0.00    -0.267 OA
HETATM   13  N   UNL     1      -3.485  12.307  24.758  0.00  0.00    -0.318 N 
HETATM   14  C   UNL     1      -4.458  11.651  25.628  0.00  0.00     0.159 C 
BRANCH  13  15
HETATM   15  C   UNL     1      -2.218  11.659  24.587  0.00  0.00     0.037 A 
HETATM   16  C   UNL     1      -2.076  10.578  23.713  0.00  0.00     0.030 A 
HETATM   17  C   UNL     1      -0.878   9.864  23.640  0.00  0.00     0.017 A 
HETATM   18  C   UNL     1       0.222  10.220  24.426  0.00  0.00     0.009 A 
HETATM   19  C   UNL     1       0.124  11.354  25.232  0.00  0.00     0.017 A 
HETATM   20  C   UNL     1      -1.085  12.081  25.301  0.00  0.00     0.030 A 
BRANCH  18  21
HETATM   21  C   UNL     1       1.431   9.334  24.352  0.00  0.00     0.155 C 
HETATM   22  O   UNL     1       1.550   8.570  23.390  0.00  0.00    -0.293 OA
HETATM   23  C   UNL     1       2.470   9.319  25.435  0.00  0.00     0.096 C 
ENDBRANCH  18  21
ENDBRANCH  13  15
ENDBRANCH   8  11
BRANCH   9  24
HETATM   24  O   UNL     1      -4.174  12.742  21.521  0.00  0.00    -0.360 OA
HETATM   25  H   UNL     1      -3.836  12.329  20.695  0.00  0.00     0.217 HD
ENDBRANCH   9  24
BRANCH   1  26
HETATM   26  C   UNL     1       0.775  16.954  23.104  0.00  0.00     0.100 C 
BRANCH  26  27
HETATM   27  C   UNL     1       1.928  15.982  23.232  0.00  0.00    -0.052 A 
HETATM   28  C   UNL     1       3.077  15.978  22.429  0.00  0.00     0.014 A 
HETATM   29  C   UNL     1       4.007  14.931  22.501  0.00  0.00    -0.061 A 
HETATM   30  C   UNL     1       5.116  14.839  21.495  0.00  0.00     0.048 C 
HETATM   31  C   UNL     1       3.824  13.909  23.438  0.00  0.00     0.007 A 
HETATM   32  C   UNL     1       2.724  13.930  24.291  0.00  0.00     0.001 A 
HETATM   33  C   UNL     1       1.784  14.953  24.183  0.00  0.00     0.007 A 
ENDBRANCH  26  27
ENDBRANCH   1  26
TORSDOF 6
ENDMDL
MODEL 8
REMARK VINA RESULT:    -7.648      2.807      5.269
REMARK INTER + INTRA:         -12.315
REMARK INTER:                 -10.545
REMARK INTRA:                  -1.770
REMARK UNBOUND:                -2.208
REMARK  6 active torsions:
REMARK  status: ('A' for Active; 'I' for Inactive)
REMARK    1  A    between atoms: C_7  and  C_8 
REMARK    2  A    between atoms: C_8  and  C_9 
REMARK    3  A    between atoms: C_16  and  C_20 
REMARK    4  A    between atoms: C_17  and  O_19 
REMARK       I    between atoms: C_20  and  N_22 
REMARK    5  A    between atoms: N_22  and  C_24 
REMARK    6  A    between atoms: C_27  and  C_28 
ROOT
HETATM    1  C   UNL     1      -3.972  11.934  25.223  0.00  0.00     0.071 A 
HETATM    2  N   UNL     1      -4.683  12.471  26.229  0.00  0.00    -0.178 NA
HETATM    3  N   UNL     1      -4.081  12.014  27.336  0.00  0.00    -0.277 N 
HETATM    4  H   UNL     1      -4.458  12.291  28.236  0.00  0.00     0.189 HD
HETATM    5  C   UNL     1      -2.894  11.139  25.711  0.00  0.00     0.020 A 
HETATM    6  C   UNL     1      -3.054  11.144  27.093  0.00  0.00     0.065 A 
HETATM    7  C   UNL     1      -1.861  10.370  25.144  0.00  0.00     0.035 C 
HETATM    8  C   UNL     1      -1.053   9.585  25.986  0.00  0.00     0.066 C 
HETATM    9  C   UNL     1      -1.347   9.512  27.356  0.00  0.00     0.083 C 
HETATM   10  C   UNL     1      -2.301  10.340  27.951  0.00  0.00     0.069 C 
ENDROOT
BRANCH   8  11
HETATM   11  C   UNL     1       0.079   8.788  25.433  0.00  0.00     0.260 C 
HETATM   12  O   UNL     1       0.280   7.699  25.983  0.00  0.00    -0.267 OA
HETATM   13  N   UNL     1       0.812   9.240  24.315  0.00  0.00    -0.318 N 
HETATM   14  C   UNL     1       1.674   8.274  23.636  0.00  0.00     0.159 C 
BRANCH  13  15
HETATM   15  C   UNL     1       0.880  10.602  23.872  0.00  0.00     0.037 A 
HETATM   16  C   UNL     1       0.307  10.990  22.657  0.00  0.00     0.030 A 
HETATM   17  C   UNL     1       0.482  12.284  22.161  0.00  0.00     0.017 A 
HETATM   18  C   UNL     1       1.219  13.235  22.873  0.00  0.00     0.009 A 
HETATM   19  C   UNL     1       1.714  12.889  24.131  0.00  0.00     0.017 A 
HETATM   20  C   UNL     1       1.533  11.581  24.635  0.00  0.00     0.030 A 
BRANCH  18  21
HETATM   21  C   UNL     1       1.435  14.567  22.215  0.00  0.00     0.155 C 
HETATM   22  O   UNL     1       1.466  14.622  20.982  0.00  0.00    -0.293 OA
HETATM   23  C   UNL     1       1.660  15.818  23.013  0.00  0.00     0.096 C 
ENDBRANCH  18  21
ENDBRANCH  13  15
ENDBRANCH   8  11
BRANCH   9  24
HETATM   24  O   UNL     1      -0.748   8.603  28.190  0.00  0.00    -0.360 OA
HETATM   25  H   UNL     1      -1.442   7.958  28.453  0.00  0.00     0.217 HD
ENDBRANCH   9  24
BRANCH   1  26
HETATM   26  C   UNL     1      -4.442  12.054  23.811  0.00  0.00     0.100 C 
BRANCH  26  27
HETATM   27  C   UNL     1      -3.869  13.263  23.104  0.00  0.00    -0.052 A 
HETATM   28  C   UNL     1      -4.320  13.775  21.879  0.00  0.00     0.014 A 
HETATM   29  C   UNL     1      -3.612  14.786  21.212  0.00  0.00    -0.061 A 
HETATM   30  C   UNL     1      -3.992  15.175  19.814  0.00  0.00     0.048 C 
HETATM   31  C   UNL     1      -2.477  15.344  21.811  0.00  0.00     0.007 A 
HETATM   32  C   UNL     1      -2.052  14.896  23.058  0.00  0.00     0.001 A 
HETATM   33  C   UNL     1      -2.738  13.861  23.693  0.00  0.00     0.007 A 
ENDBRANCH  26  27
ENDBRANCH   1  26
TORSDOF 6
ENDMDL
MODEL 9
REMARK VINA RESULT:    -7.588      2.914      7.810
REMARK INTER + INTRA:         -12.236
REMARK INTER:                 -10.250
REMARK INTRA:                  -1.987
REMARK UNBOUND:                -2.208
REMARK  6 active torsions:
REMARK  status: ('A' for Active; 'I' for Inactive)
REMARK    1  A    between atoms: C_7  and  C_8 
REMARK    2  A    between atoms: C_8  and  C_9 
REMARK    3  A    between atoms: C_16  and  C_20 
REMARK    4  A    between atoms: C_17  and  O_19 
REMARK       I    between atoms: C_20  and  N_22 
REMARK    5  A    between atoms: N_22  and  C_24 
REMARK    6  A    between atoms: C_27  and  C_28 
ROOT
HETATM    1  C   UNL     1       0.516   9.167  25.184  0.00  0.00     0.071 A 
HETATM    2  N   UNL     1       0.457   8.524  24.006  0.00  0.00    -0.178 NA
HETATM    3  N   UNL     1      -0.570   9.105  23.367  0.00  0.00    -0.277 N 
HETATM    4  H   UNL     1      -0.808   8.771  22.440  0.00  0.00     0.189 HD
HETATM    5  C   UNL     1      -0.484  10.179  25.278  0.00  0.00     0.020 A 
HETATM    6  C   UNL     1      -1.227  10.047  24.110  0.00  0.00     0.065 A 
HETATM    7  C   UNL     1      -0.879  11.130  26.238  0.00  0.00     0.035 C 
HETATM    8  C   UNL     1      -2.047  11.883  26.012  0.00  0.00     0.066 C 
HETATM    9  C   UNL     1      -2.839  11.609  24.888  0.00  0.00     0.083 C 
HETATM   10  C   UNL     1      -2.415  10.742  23.879  0.00  0.00     0.069 C 
ENDROOT
BRANCH   8  11
HETATM   11  C   UNL     1      -2.479  12.929  26.981  0.00  0.00     0.260 C 
HETATM   12  O   UNL     1      -3.329  12.571  27.805  0.00  0.00    -0.267 OA
HETATM   13  N   UNL     1      -1.894  14.214  26.978  0.00  0.00    -0.318 N 
HETATM   14  C   UNL     1      -2.126  15.064  28.144  0.00  0.00     0.159 C 
BRANCH  13  15
HETATM   15  C   UNL     1      -1.201  14.799  25.869  0.00  0.00     0.037 A 
HETATM   16  C   UNL     1      -1.886  15.166  24.707  0.00  0.00     0.030 A 
HETATM   17  C   UNL     1      -1.198  15.615  23.578  0.00  0.00     0.017 A 
HETATM   18  C   UNL     1       0.195  15.730  23.581  0.00  0.00     0.009 A 
HETATM   19  C   UNL     1       0.882  15.458  24.765  0.00  0.00     0.017 A 
HETATM   20  C   UNL     1       0.186  15.009  25.909  0.00  0.00     0.030 A 
BRANCH  18  21
HETATM   21  C   UNL     1       0.852  16.126  22.291  0.00  0.00     0.155 C 
HETATM   22  O   UNL     1       0.351  15.748  21.228  0.00  0.00    -0.293 OA
HETATM   23  C   UNL     1       2.122  16.926  22.262  0.00  0.00     0.096 C 
ENDBRANCH  18  21
ENDBRANCH  13  15
ENDBRANCH   8  11
BRANCH   9  24
HETATM   24  O   UNL     1      -4.093  12.141  24.724  0.00  0.00    -0.360 OA
HETATM   25  H   UNL     1      -3.971  13.068  24.422  0.00  0.00     0.217 HD
ENDBRANCH   9  24
BRANCH   1  26
HETATM   26  C   UNL     1       1.420   8.682  26.270  0.00  0.00     0.100 C 
BRANCH  26  27
HETATM   27  C   UNL     1       0.663   8.186  27.483  0.00  0.00    -0.052 A 
HETATM   28  C   UNL     1       0.781   8.705  28.780  0.00  0.00     0.014 A 
HETATM   29  C   UNL     1       0.179   8.065  29.873  0.00  0.00    -0.061 A 
HETATM   30  C   UNL     1       0.485   8.516  31.271  0.00  0.00     0.048 C 
HETATM   31  C   UNL     1      -0.612   6.931  29.659  0.00  0.00     0.007 A 
HETATM   32  C   UNL     1      -0.797   6.439  28.371  0.00  0.00     0.001 A 
HETATM   33  C   UNL     1      -0.159   7.057  27.296  0.00  0.00     0.007 A 
ENDBRANCH  26  27
ENDBRANCH   1  26
TORSDOF 6
ENDMDL
