MODEL 1
REMARK VINA RESULT:    -7.914      0.000      0.000
REMARK INTER + INTRA:          -8.999
REMARK INTER:                  -8.598
REMARK INTRA:                  -0.401
REMARK UNBOUND:                -0.160
REMARK  3 active torsions:
REMARK  status: ('A' for Active; 'I' for Inactive)
REMARK    1  A    between atoms: C_7  and  N_8 
REMARK    2  A    between atoms: C_10  and  C_11 
REMARK       I    between atoms: C_11  and  N_13 
REMARK    3  A    between atoms: C_18  and  O_19 
ROOT
HETATM    1  C   UNL     1       2.610   5.533  23.632  0.00  0.00     0.048 C 
HETATM    2  C   UNL     1       3.755   6.069  22.823  0.00  0.00    -0.061 A 
HETATM    3  C   UNL     1       5.069   5.956  23.262  0.00  0.00     0.009 A 
HETATM    4  C   UNL     1       6.109   6.470  22.482  0.00  0.00     0.033 A 
HETATM    5  C   UNL     1       5.883   7.108  21.267  0.00  0.00     0.073 A 
HETATM    6  N   UNL     1       6.938   7.596  20.606  0.00  0.00    -0.218 NA
HETATM    7  C   UNL     1       6.722   8.241  19.460  0.00  0.00     0.200 A 
HETATM    8  N   UNL     1       5.537   8.411  18.887  0.00  0.00    -0.212 NA
HETATM    9  C   UNL     1       4.479   7.889  19.555  0.00  0.00     0.140 A 
HETATM   10  C   UNL     1       4.576   7.220  20.793  0.00  0.00     0.028 A 
HETATM   11  C   UNL     1       3.517   6.685  21.588  0.00  0.00     0.023 A 
ENDROOT
BRANCH   9  12
HETATM   12  C   UNL     1       3.154   8.000  18.854  0.00  0.00     0.274 C 
HETATM   13  O   UNL     1       2.580   9.091  18.841  0.00  0.00    -0.266 OA
HETATM   14  N   UNL     1       2.571   6.912  18.220  0.00  0.00    -0.338 N 
HETATM   15  C   UNL     1       3.009   5.511  18.147  0.00  0.00     0.165 A 
HETATM   16  C   UNL     1       1.350   7.149  17.457  0.00  0.00     0.165 A 
HETATM   17  C   UNL     1       1.946   4.858  17.304  0.00  0.00    -0.032 A 
HETATM   18  C   UNL     1       1.806   3.534  16.915  0.00  0.00     0.012 A 
HETATM   19  C   UNL     1       0.995   5.809  16.915  0.00  0.00    -0.030 A 
HETATM   20  C   UNL     1       0.698   3.177  16.133  0.00  0.00     0.037 A 
HETATM   21  C   UNL     1      -0.241   4.146  15.754  0.00  0.00     0.066 A 
HETATM   22  C   UNL     1      -0.101   5.472  16.139  0.00  0.00     0.046 A 
BRANCH  21  23
HETATM   23  O   UNL     1      -1.331   3.828  14.996  0.00  0.00    -0.361 OA
HETATM   24  H   UNL     1      -1.688   4.641  14.604  0.00  0.00     0.217 HD
ENDBRANCH  21  23
ENDBRANCH   9  12
BRANCH   7  25
HETATM   25  N   UNL     1       7.835   8.735  18.811  0.00  0.00    -0.271 NA
HETATM   26  H   UNL     1       8.648   8.622  19.403  0.00  0.00     0.127 HD
HETATM   27  H   UNL     1       7.893   8.359  17.875  0.00  0.00     0.127 HD
ENDBRANCH   7  25
TORSDOF 3
ENDMDL
MODEL 2
REMARK VINA RESULT:    -7.809      7.505      8.766
REMARK INTER + INTRA:          -8.881
REMARK INTER:                  -8.403
REMARK INTRA:                  -0.478
REMARK UNBOUND:                -0.160
REMARK  3 active torsions:
REMARK  status: ('A' for Active; 'I' for Inactive)
REMARK    1  A    between atoms: C_7  and  N_8 
REMARK    2  A    between atoms: C_10  and  C_11 
REMARK       I    between atoms: C_11  and  N_13 
REMARK    3  A    between atoms: C_18  and  O_19 
ROOT
HETATM    1  C   UNL     1       1.071   8.705  31.254  0.00  0.00     0.048 C 
HETATM    2  C   UNL     1       2.000   8.174  30.202  0.00  0.00    -0.061 A 
HETATM    3  C   UNL     1       3.308   7.812  30.506  0.00  0.00     0.009 A 
HETATM    4  C   UNL     1       4.145   7.323  29.498  0.00  0.00     0.033 A 
HETATM    5  C   UNL     1       3.723   7.188  28.180  0.00  0.00     0.073 A 
HETATM    6  N   UNL     1       4.605   6.741  27.279  0.00  0.00    -0.218 NA
HETATM    7  C   UNL     1       4.215   6.645  26.008  0.00  0.00     0.200 A 
HETATM    8  N   UNL     1       2.999   6.922  25.556  0.00  0.00    -0.212 NA
HETATM    9  C   UNL     1       2.107   7.349  26.485  0.00  0.00     0.140 A 
HETATM   10  C   UNL     1       2.411   7.526  27.850  0.00  0.00     0.028 A 
HETATM   11  C   UNL     1       1.556   8.016  28.884  0.00  0.00     0.023 A 
ENDROOT
BRANCH   9  12
HETATM   12  C   UNL     1       0.707   7.566  25.984  0.00  0.00     0.274 C 
HETATM   13  O   UNL     1      -0.099   6.636  26.059  0.00  0.00    -0.266 OA
HETATM   14  N   UNL     1       0.302   8.781  25.451  0.00  0.00    -0.338 N 
HETATM   15  C   UNL     1       1.073  10.006  25.192  0.00  0.00     0.165 A 
HETATM   16  C   UNL     1      -1.108   8.935  25.111  0.00  0.00     0.165 A 
HETATM   17  C   UNL     1       0.046  10.949  24.623  0.00  0.00    -0.032 A 
HETATM   18  C   UNL     1       0.189  12.250  24.164  0.00  0.00     0.012 A 
HETATM   19  C   UNL     1      -1.204  10.322  24.579  0.00  0.00    -0.030 A 
HETATM   20  C   UNL     1      -0.940  12.912  23.659  0.00  0.00     0.037 A 
HETATM   21  C   UNL     1      -2.182  12.265  23.626  0.00  0.00     0.066 A 
HETATM   22  C   UNL     1      -2.328  10.964  24.087  0.00  0.00     0.046 A 
BRANCH  21  23
HETATM   23  O   UNL     1      -3.297  12.882  23.135  0.00  0.00    -0.361 OA
HETATM   24  H   UNL     1      -3.079  13.290  22.282  0.00  0.00     0.217 HD
ENDBRANCH  21  23
ENDBRANCH   9  12
BRANCH   7  25
HETATM   25  N   UNL     1       5.155   6.188  25.108  0.00  0.00    -0.271 NA
HETATM   26  H   UNL     1       5.628   6.977  24.685  0.00  0.00     0.127 HD
HETATM   27  H   UNL     1       5.735   5.479  25.533  0.00  0.00     0.127 HD
ENDBRANCH   7  25
TORSDOF 3
ENDMDL
MODEL 3
REMARK VINA RESULT:    -7.553      4.115      6.020
REMARK INTER + INTRA:          -8.595
REMARK INTER:                  -8.286
REMARK INTRA:                  -0.309
REMARK UNBOUND:                -0.160
REMARK  3 active torsions:
REMARK  status: ('A' for Active; 'I' for Inactive)
REMARK    1  A    between atoms: C_7  and  N_8 
REMARK    2  A    between atoms: C_10  and  C_11 
REMARK       I    between atoms: C_11  and  N_13 
REMARK    3  A    between atoms: C_18  and  O_19 
ROOT
HETATM    1  C   UNL     1      -1.404  10.214  24.763  0.00  0.00     0.048 C 
HETATM    2  C   UNL     1      -0.357   9.351  25.402  0.00  0.00    -0.061 A 
HETATM    3  C   UNL     1      -0.589   8.706  26.612  0.00  0.00     0.009 A 
HETATM    4  C   UNL     1       0.413   7.912  27.179  0.00  0.00     0.033 A 
HETATM    5  C   UNL     1       1.656   7.741  26.580  0.00  0.00     0.073 A 
HETATM    6  N   UNL     1       2.563   6.989  27.213  0.00  0.00    -0.218 NA
HETATM    7  C   UNL     1       3.768   6.854  26.661  0.00  0.00     0.200 A 
HETATM    8  N   UNL     1       4.143   7.377  25.500  0.00  0.00    -0.212 NA
HETATM    9  C   UNL     1       3.206   8.117  24.857  0.00  0.00     0.140 A 
HETATM   10  C   UNL     1       1.911   8.362  25.358  0.00  0.00     0.028 A 
HETATM   11  C   UNL     1       0.881   9.165  24.777  0.00  0.00     0.023 A 
ENDROOT
BRANCH   9  12
HETATM   12  C   UNL     1       3.604   8.624  23.500  0.00  0.00     0.274 C 
HETATM   13  O   UNL     1       3.827   9.829  23.359  0.00  0.00    -0.266 OA
HETATM   14  N   UNL     1       3.733   7.773  22.411  0.00  0.00    -0.338 N 
HETATM   15  C   UNL     1       3.465   6.332  22.298  0.00  0.00     0.165 A 
HETATM   16  C   UNL     1       4.249   8.338  21.168  0.00  0.00     0.165 A 
HETATM   17  C   UNL     1       3.817   6.025  20.867  0.00  0.00    -0.032 A 
HETATM   18  C   UNL     1       3.741   4.829  20.168  0.00  0.00     0.012 A 
HETATM   19  C   UNL     1       4.264   7.186  20.225  0.00  0.00    -0.030 A 
HETATM   20  C   UNL     1       4.118   4.815  18.817  0.00  0.00     0.037 A 
HETATM   21  C   UNL     1       4.564   5.990  18.196  0.00  0.00     0.066 A 
HETATM   22  C   UNL     1       4.644   7.186  18.894  0.00  0.00     0.046 A 
BRANCH  21  23
HETATM   23  O   UNL     1       4.933   6.007  16.882  0.00  0.00    -0.361 OA
HETATM   24  H   UNL     1       4.174   6.292  16.348  0.00  0.00     0.217 HD
ENDBRANCH  21  23
ENDBRANCH   9  12
BRANCH   7  25
HETATM   25  N   UNL     1       4.677   6.076  27.347  0.00  0.00    -0.271 NA
HETATM   26  H   UNL     1       4.202   5.576  28.088  0.00  0.00     0.127 HD
HETATM   27  H   UNL     1       5.226   5.525  26.702  0.00  0.00     0.127 HD
ENDBRANCH   7  25
TORSDOF 3
ENDMDL
MODEL 4
REMARK VINA RESULT:    -7.542      2.474      6.739
REMARK INTER + INTRA:          -8.583
REMARK INTER:                  -8.175
REMARK INTRA:                  -0.408
REMARK UNBOUND:                -0.160
REMARK  3 active torsions:
REMARK  status: ('A' for Active; 'I' for Inactive)
REMARK    1  A    between atoms: C_7  and  N_8 
REMARK    2  A    between atoms: C_10  and  C_11 
REMARK       I    between atoms: C_11  and  N_13 
REMARK    3  A    between atoms: C_18  and  O_19 
ROOT
HETATM    1  C   UNL     1       2.365   2.511  17.205  0.00  0.00     0.048 C 
HETATM    2  C   UNL     1       2.027   3.972  17.208  0.00  0.00    -0.061 A 
HETATM    3  C   UNL     1       0.869   4.450  16.605  0.00  0.00     0.009 A 
HETATM    4  C   UNL     1       0.589   5.819  16.626  0.00  0.00     0.033 A 
HETATM    5  C   UNL     1       1.437   6.744  17.226  0.00  0.00     0.073 A 
HETATM    6  N   UNL     1       1.102   8.037  17.168  0.00  0.00    -0.218 NA
HETATM    7  C   UNL     1       1.930   8.929  17.710  0.00  0.00     0.200 A 
HETATM    8  N   UNL     1       3.059   8.640  18.346  0.00  0.00    -0.212 NA
HETATM    9  C   UNL     1       3.374   7.323  18.420  0.00  0.00     0.140 A 
HETATM   10  C   UNL     1       2.597   6.292  17.854  0.00  0.00     0.028 A 
HETATM   11  C   UNL     1       2.875   4.890  17.839  0.00  0.00     0.023 A 
ENDROOT
BRANCH   9  12
HETATM   12  C   UNL     1       4.600   6.997  19.226  0.00  0.00     0.274 C 
HETATM   13  O   UNL     1       5.708   7.206  18.728  0.00  0.00    -0.266 OA
HETATM   14  N   UNL     1       4.513   6.478  20.510  0.00  0.00    -0.338 N 
HETATM   15  C   UNL     1       3.334   6.082  21.294  0.00  0.00     0.165 A 
HETATM   16  C   UNL     1       5.754   6.315  21.259  0.00  0.00     0.165 A 
HETATM   17  C   UNL     1       3.925   5.616  22.598  0.00  0.00    -0.032 A 
HETATM   18  C   UNL     1       3.301   5.098  23.724  0.00  0.00     0.012 A 
HETATM   19  C   UNL     1       5.318   5.752  22.566  0.00  0.00    -0.030 A 
HETATM   20  C   UNL     1       4.095   4.717  24.816  0.00  0.00     0.037 A 
HETATM   21  C   UNL     1       5.488   4.864  24.762  0.00  0.00     0.066 A 
HETATM   22  C   UNL     1       6.113   5.385  23.638  0.00  0.00     0.046 A 
BRANCH  21  23
HETATM   23  O   UNL     1       6.286   4.498  25.808  0.00  0.00    -0.361 OA
HETATM   24  H   UNL     1       5.829   4.706  26.638  0.00  0.00     0.217 HD
ENDBRANCH  21  23
ENDBRANCH   9  12
BRANCH   7  25
HETATM   25  N   UNL     1       1.554  10.253  17.624  0.00  0.00    -0.271 NA
HETATM   26  H   UNL     1       0.572  10.309  17.385  0.00  0.00     0.127 HD
HETATM   27  H   UNL     1       1.855  10.759  18.445  0.00  0.00     0.127 HD
ENDBRANCH   7  25
TORSDOF 3
ENDMDL
MODEL 5
REMARK VINA RESULT:    -7.505      3.317      7.131
REMARK INTER + INTRA:          -8.542
REMARK INTER:                  -8.055
REMARK INTRA:                  -0.488
REMARK UNBOUND:                -0.160
REMARK  3 active torsions:
REMARK  status: ('A' for Active; 'I' for Inactive)
REMARK    1  A    between atoms: C_7  and  N_8 
REMARK    2  A    between atoms: C_10  and  C_11 
REMARK       I    between atoms: C_11  and  N_13 
REMARK    3  A    between atoms: C_18  and  O_19 
ROOT
HETATM    1  C   UNL     1       0.314   4.986  19.376  0.00  0.00     0.048 C 
HETATM    2  C   UNL     1       1.544   5.802  19.109  0.00  0.00    -0.061 A 
HETATM    3  C   UNL     1       1.693   6.526  17.931  0.00  0.00     0.009 A 
HETATM    4  C   UNL     1       2.855   7.273  17.716  0.00  0.00     0.033 A 
HETATM    5  C   UNL     1       3.892   7.319  18.642  0.00  0.00     0.073 A 
HETATM    6  N   UNL     1       4.979   8.035  18.335  0.00  0.00    -0.218 NA
HETATM    7  C   UNL     1       5.990   8.052  19.203  0.00  0.00     0.200 A 
HETATM    8  N   UNL     1       5.999   7.442  20.381  0.00  0.00    -0.212 NA
HETATM    9  C   UNL     1       4.881   6.740  20.691  0.00  0.00     0.140 A 
HETATM   10  C   UNL     1       3.763   6.617  19.840  0.00  0.00     0.028 A 
HETATM   11  C   UNL     1       2.570   5.863  20.060  0.00  0.00     0.023 A 
ENDROOT
BRANCH   9  12
HETATM   12  C   UNL     1       4.858   6.134  22.066  0.00  0.00     0.274 C 
HETATM   13  O   UNL     1       5.398   5.038  22.239  0.00  0.00    -0.266 OA
HETATM   14  N   UNL     1       4.258   6.778  23.138  0.00  0.00    -0.338 N 
HETATM   15  C   UNL     1       3.502   8.039  23.184  0.00  0.00     0.165 A 
HETATM   16  C   UNL     1       4.400   6.172  24.458  0.00  0.00     0.165 A 
HETATM   17  C   UNL     1       3.140   8.173  24.639  0.00  0.00    -0.032 A 
HETATM   18  C   UNL     1       2.400   9.152  25.285  0.00  0.00     0.012 A 
HETATM   19  C   UNL     1       3.658   7.092  25.362  0.00  0.00    -0.030 A 
HETATM   20  C   UNL     1       2.188   9.032  26.667  0.00  0.00     0.037 A 
HETATM   21  C   UNL     1       2.720   7.943  27.371  0.00  0.00     0.066 A 
HETATM   22  C   UNL     1       3.462   6.963  26.726  0.00  0.00     0.046 A 
BRANCH  21  23
HETATM   23  O   UNL     1       2.526   7.797  28.714  0.00  0.00    -0.361 OA
HETATM   24  H   UNL     1       3.390   7.704  29.147  0.00  0.00     0.217 HD
ENDBRANCH  21  23
ENDBRANCH   9  12
BRANCH   7  25
HETATM   25  N   UNL     1       7.096   8.796  18.848  0.00  0.00    -0.271 NA
HETATM   26  H   UNL     1       7.917   8.419  19.305  0.00  0.00     0.127 HD
HETATM   27  H   UNL     1       7.140   8.905  17.845  0.00  0.00     0.127 HD
ENDBRANCH   7  25
TORSDOF 3
ENDMDL
MODEL 6
REMARK VINA RESULT:    -7.444      6.487      8.781
REMARK INTER + INTRA:          -8.474
REMARK INTER:                  -8.314
REMARK INTRA:                  -0.160
REMARK UNBOUND:                -0.160
REMARK  3 active torsions:
REMARK  status: ('A' for Active; 'I' for Inactive)
REMARK    1  A    between atoms: C_7  and  N_8 
REMARK    2  A    between atoms: C_10  and  C_11 
REMARK       I    between atoms: C_11  and  N_13 
REMARK    3  A    between atoms: C_18  and  O_19 
ROOT
HETATM    1  C   UNL     1       0.909   8.768  29.718  0.00  0.00     0.048 C 
HETATM    2  C   UNL     1       0.027   9.351  28.654  0.00  0.00    -0.061 A 
HETATM    3  C   UNL     1      -1.303   9.667  28.908  0.00  0.00     0.009 A 
HETATM    4  C   UNL     1      -2.095  10.206  27.890  0.00  0.00     0.033 A 
HETATM    5  C   UNL     1      -1.607  10.438  26.609  0.00  0.00     0.073 A 
HETATM    6  N   UNL     1      -2.448  10.927  25.692  0.00  0.00    -0.218 NA
HETATM    7  C   UNL     1      -1.993  11.115  24.453  0.00  0.00     0.200 A 
HETATM    8  N   UNL     1      -0.748  10.892  24.052  0.00  0.00    -0.212 NA
HETATM    9  C   UNL     1       0.102  10.421  24.998  0.00  0.00     0.140 A 
HETATM   10  C   UNL     1      -0.272  10.147  26.330  0.00  0.00     0.028 A 
HETATM   11  C   UNL     1       0.538   9.605  27.376  0.00  0.00     0.023 A 
ENDROOT
BRANCH   9  12
HETATM   12  C   UNL     1       1.531  10.264  24.562  0.00  0.00     0.274 C 
HETATM   13  O   UNL     1       2.165  11.271  24.238  0.00  0.00    -0.266 OA
HETATM   14  N   UNL     1       2.151   9.023  24.525  0.00  0.00    -0.338 N 
HETATM   15  C   UNL     1       1.608   7.684  24.793  0.00  0.00     0.165 A 
HETATM   16  C   UNL     1       3.577   8.989  24.213  0.00  0.00     0.165 A 
HETATM   17  C   UNL     1       2.795   6.781  24.591  0.00  0.00    -0.032 A 
HETATM   18  C   UNL     1       2.889   5.399  24.678  0.00  0.00     0.012 A 
HETATM   19  C   UNL     1       3.922   7.541  24.255  0.00  0.00    -0.030 A 
HETATM   20  C   UNL     1       4.127   4.792  24.421  0.00  0.00     0.037 A 
HETATM   21  C   UNL     1       5.242   5.574  24.089  0.00  0.00     0.066 A 
HETATM   22  C   UNL     1       5.151   6.956  24.004  0.00  0.00     0.046 A 
BRANCH  21  23
HETATM   23  O   UNL     1       6.458   5.011  23.829  0.00  0.00    -0.361 OA
HETATM   24  H   UNL     1       6.719   4.467  24.589  0.00  0.00     0.217 HD
ENDBRANCH  21  23
ENDBRANCH   9  12
BRANCH   7  25
HETATM   25  N   UNL     1      -2.892  11.615  23.534  0.00  0.00    -0.271 NA
HETATM   26  H   UNL     1      -3.782  11.144  23.644  0.00  0.00     0.127 HD
HETATM   27  H   UNL     1      -2.901  12.624  23.563  0.00  0.00     0.127 HD
ENDBRANCH   7  25
TORSDOF 3
ENDMDL
MODEL 7
REMARK VINA RESULT:    -7.365      6.981      8.949
REMARK INTER + INTRA:          -8.385
REMARK INTER:                  -7.886
REMARK INTRA:                  -0.499
REMARK UNBOUND:                -0.160
REMARK  3 active torsions:
REMARK  status: ('A' for Active; 'I' for Inactive)
REMARK    1  A    between atoms: C_7  and  N_8 
REMARK    2  A    between atoms: C_10  and  C_11 
REMARK       I    between atoms: C_11  and  N_13 
REMARK    3  A    between atoms: C_18  and  O_19 
ROOT
HETATM    1  C   UNL     1       2.920   5.073  23.809  0.00  0.00     0.048 C 
HETATM    2  C   UNL     1       3.158   5.808  25.095  0.00  0.00    -0.061 A 
HETATM    3  C   UNL     1       4.397   5.782  25.726  0.00  0.00     0.009 A 
HETATM    4  C   UNL     1       4.580   6.478  26.925  0.00  0.00     0.033 A 
HETATM    5  C   UNL     1       3.558   7.202  27.530  0.00  0.00     0.073 A 
HETATM    6  N   UNL     1       3.818   7.809  28.693  0.00  0.00    -0.218 NA
HETATM    7  C   UNL     1       2.831   8.472  29.294  0.00  0.00     0.200 A 
HETATM    8  N   UNL     1       1.602   8.618  28.815  0.00  0.00    -0.212 NA
HETATM    9  C   UNL     1       1.359   8.019  27.623  0.00  0.00     0.140 A 
HETATM   10  C   UNL     1       2.310   7.260  26.911  0.00  0.00     0.028 A 
HETATM   11  C   UNL     1       2.130   6.555  25.680  0.00  0.00     0.023 A 
ENDROOT
BRANCH   9  12
HETATM   12  C   UNL     1      -0.003   8.271  27.039  0.00  0.00     0.274 C 
HETATM   13  O   UNL     1      -0.935   7.534  27.371  0.00  0.00    -0.266 OA
HETATM   14  N   UNL     1      -0.235   9.310  26.150  0.00  0.00    -0.338 N 
HETATM   15  C   UNL     1       0.701  10.274  25.553  0.00  0.00     0.165 A 
HETATM   16  C   UNL     1      -1.615   9.553  25.739  0.00  0.00     0.165 A 
HETATM   17  C   UNL     1      -0.188  11.134  24.695  0.00  0.00    -0.032 A 
HETATM   18  C   UNL     1       0.135  12.198  23.865  0.00  0.00     0.012 A 
HETATM   19  C   UNL     1      -1.517  10.709  24.807  0.00  0.00    -0.030 A 
HETATM   20  C   UNL     1      -0.894  12.829  23.150  0.00  0.00     0.037 A 
HETATM   21  C   UNL     1      -2.218  12.387  23.280  0.00  0.00     0.066 A 
HETATM   22  C   UNL     1      -2.543  11.325  24.111  0.00  0.00     0.046 A 
BRANCH  21  23
HETATM   23  O   UNL     1      -3.239  12.978  22.593  0.00  0.00    -0.361 OA
HETATM   24  H   UNL     1      -2.982  13.888  22.371  0.00  0.00     0.217 HD
ENDBRANCH  21  23
ENDBRANCH   9  12
BRANCH   7  25
HETATM   25  N   UNL     1       3.137   9.079  30.494  0.00  0.00    -0.271 NA
HETATM   26  H   UNL     1       3.640   8.427  31.083  0.00  0.00     0.127 HD
HETATM   27  H   UNL     1       3.568   9.978  30.335  0.00  0.00     0.127 HD
ENDBRANCH   7  25
TORSDOF 3
ENDMDL
MODEL 8
REMARK VINA RESULT:    -7.244      4.274      7.536
REMARK INTER + INTRA:          -8.251
REMARK INTER:                  -8.096
REMARK INTRA:                  -0.155
REMARK UNBOUND:                -0.160
REMARK  3 active torsions:
REMARK  status: ('A' for Active; 'I' for Inactive)
REMARK    1  A    between atoms: C_7  and  N_8 
REMARK    2  A    between atoms: C_10  and  C_11 
REMARK       I    between atoms: C_11  and  N_13 
REMARK    3  A    between atoms: C_18  and  O_19 
ROOT
HETATM    1  C   UNL     1       2.781   8.325  18.215  0.00  0.00     0.048 C 
HETATM    2  C   UNL     1       3.585   7.628  19.272  0.00  0.00    -0.061 A 
HETATM    3  C   UNL     1       4.401   6.545  18.967  0.00  0.00     0.009 A 
HETATM    4  C   UNL     1       5.134   5.919  19.980  0.00  0.00     0.033 A 
HETATM    5  C   UNL     1       5.076   6.334  21.306  0.00  0.00     0.073 A 
HETATM    6  N   UNL     1       5.788   5.655  22.211  0.00  0.00    -0.218 NA
HETATM    7  C   UNL     1       5.706   6.027  23.488  0.00  0.00     0.200 A 
HETATM    8  N   UNL     1       4.999   7.053  23.944  0.00  0.00    -0.212 NA
HETATM    9  C   UNL     1       4.302   7.750  23.012  0.00  0.00     0.140 A 
HETATM   10  C   UNL     1       4.280   7.430  21.639  0.00  0.00     0.028 A 
HETATM   11  C   UNL     1       3.540   8.073  20.599  0.00  0.00     0.023 A 
ENDROOT
BRANCH   9  12
HETATM   12  C   UNL     1       3.584   8.968  23.520  0.00  0.00     0.274 C 
HETATM   13  O   UNL     1       3.941  10.077  23.117  0.00  0.00    -0.266 OA
HETATM   14  N   UNL     1       2.531   8.872  24.419  0.00  0.00    -0.338 N 
HETATM   15  C   UNL     1       1.964   7.695  25.092  0.00  0.00     0.165 A 
HETATM   16  C   UNL     1       1.814  10.098  24.753  0.00  0.00     0.165 A 
HETATM   17  C   UNL     1       0.845   8.272  25.917  0.00  0.00    -0.032 A 
HETATM   18  C   UNL     1      -0.034   7.646  26.789  0.00  0.00     0.012 A 
HETATM   19  C   UNL     1       0.769   9.656  25.717  0.00  0.00    -0.030 A 
HETATM   20  C   UNL     1      -0.988   8.428  27.457  0.00  0.00     0.037 A 
HETATM   21  C   UNL     1      -1.047   9.811  27.240  0.00  0.00     0.066 A 
HETATM   22  C   UNL     1      -0.170  10.439  26.366  0.00  0.00     0.046 A 
BRANCH  21  23
HETATM   23  O   UNL     1      -1.961  10.598  27.880  0.00  0.00    -0.361 OA
HETATM   24  H   UNL     1      -2.658  10.031  28.247  0.00  0.00     0.217 HD
ENDBRANCH  21  23
ENDBRANCH   9  12
BRANCH   7  25
HETATM   25  N   UNL     1       6.450   5.297  24.392  0.00  0.00    -0.271 NA
HETATM   26  H   UNL     1       6.023   5.361  25.308  0.00  0.00     0.127 HD
HETATM   27  H   UNL     1       6.628   4.369  24.034  0.00  0.00     0.127 HD
ENDBRANCH   7  25
TORSDOF 3
ENDMDL
MODEL 9
REMARK VINA RESULT:    -7.209      3.300      7.125
REMARK INTER + INTRA:          -8.212
REMARK INTER:                  -7.784
REMARK INTRA:                  -0.428
REMARK UNBOUND:                -0.160
REMARK  3 active torsions:
REMARK  status: ('A' for Active; 'I' for Inactive)
REMARK    1  A    between atoms: C_7  and  N_8 
REMARK    2  A    between atoms: C_10  and  C_11 
REMARK       I    between atoms: C_11  and  N_13 
REMARK    3  A    between atoms: C_18  and  O_19 
ROOT
HETATM    1  C   UNL     1      -0.213   4.783  18.993  0.00  0.00     0.048 C 
HETATM    2  C   UNL     1       0.991   5.667  18.848  0.00  0.00    -0.061 A 
HETATM    3  C   UNL     1       0.972   6.790  18.029  0.00  0.00     0.009 A 
HETATM    4  C   UNL     1       2.115   7.587  17.917  0.00  0.00     0.033 A 
HETATM    5  C   UNL     1       3.294   7.298  18.595  0.00  0.00     0.073 A 
HETATM    6  N   UNL     1       4.346   8.101  18.401  0.00  0.00    -0.218 NA
HETATM    7  C   UNL     1       5.488   7.806  19.020  0.00  0.00     0.200 A 
HETATM    8  N   UNL     1       5.668   6.791  19.856  0.00  0.00    -0.212 NA
HETATM    9  C   UNL     1       4.586   6.000  20.063  0.00  0.00     0.140 A 
HETATM   10  C   UNL     1       3.337   6.188  19.438  0.00  0.00     0.028 A 
HETATM   11  C   UNL     1       2.164   5.381  19.557  0.00  0.00     0.023 A 
ENDROOT
BRANCH   9  12
HETATM   12  C   UNL     1       4.768   4.912  21.084  0.00  0.00     0.274 C 
HETATM   13  O   UNL     1       4.995   3.765  20.694  0.00  0.00    -0.266 OA
HETATM   14  N   UNL     1       4.696   5.170  22.446  0.00  0.00    -0.338 N 
HETATM   15  C   UNL     1       4.378   6.416  23.159  0.00  0.00     0.165 A 
HETATM   16  C   UNL     1       5.014   4.077  23.359  0.00  0.00     0.165 A 
HETATM   17  C   UNL     1       4.482   6.022  24.608  0.00  0.00    -0.032 A 
HETATM   18  C   UNL     1       4.263   6.774  25.754  0.00  0.00     0.012 A 
HETATM   19  C   UNL     1       4.846   4.674  24.712  0.00  0.00    -0.030 A 
HETATM   20  C   UNL     1       4.413   6.154  27.003  0.00  0.00     0.037 A 
HETATM   21  C   UNL     1       4.779   4.804  27.083  0.00  0.00     0.066 A 
HETATM   22  C   UNL     1       5.002   4.051  25.938  0.00  0.00     0.046 A 
BRANCH  21  23
HETATM   23  O   UNL     1       4.928   4.173  28.284  0.00  0.00    -0.361 OA
HETATM   24  H   UNL     1       5.819   3.792  28.330  0.00  0.00     0.217 HD
ENDBRANCH  21  23
ENDBRANCH   9  12
BRANCH   7  25
HETATM   25  N   UNL     1       6.552   8.654  18.790  0.00  0.00    -0.271 NA
HETATM   26  H   UNL     1       6.997   8.882  19.670  0.00  0.00     0.127 HD
HETATM   27  H   UNL     1       7.143   8.286  18.059  0.00  0.00     0.127 HD
ENDBRANCH   7  25
TORSDOF 3
ENDMDL
