MODEL 1
REMARK VINA RESULT:    -8.212      0.000      0.000
REMARK INTER + INTRA:         -13.146
REMARK INTER:                 -11.211
REMARK INTRA:                  -1.935
REMARK UNBOUND:                -1.813
REMARK  7 active torsions:
REMARK  status: ('A' for Active; 'I' for Inactive)
REMARK    1  A    between atoms: C_8  and  C_9 
REMARK    2  A    between atoms: C_14  and  N_15 
REMARK       I    between atoms: N_15  and  C_17 
REMARK    3  A    between atoms: C_17  and  C_19 
REMARK    4  A    between atoms: C_20  and  O_22 
REMARK    5  A    between atoms: C_26  and  C_30 
REMARK    6  A    between atoms: C_30  and  C_31 
REMARK    7  A    between atoms: C_31  and  C_32 
ROOT
HETATM    1  C   UNL     1       9.479  12.202  22.701  0.00  0.00     0.066 A 
HETATM    2  C   UNL     1       9.763  11.233  23.675  0.00  0.00     0.083 A 
HETATM    3  C   UNL     1       8.910  10.146  23.915  0.00  0.00     0.069 A 
HETATM    4  C   UNL     1       8.379  11.978  21.840  0.00  0.00     0.035 A 
HETATM    5  C   UNL     1       7.536  10.861  22.032  0.00  0.00     0.019 A 
HETATM    6  C   UNL     1       7.800  10.000  23.088  0.00  0.00     0.065 A 
HETATM    7  C   UNL     1       6.404  10.288  21.386  0.00  0.00     0.067 A 
HETATM    8  N   UNL     1       5.956   9.207  22.037  0.00  0.00    -0.178 NA
HETATM    9  N   UNL     1       6.811   9.059  23.052  0.00  0.00    -0.277 N 
HETATM   10  H   UNL     1       6.663   8.280  23.681  0.00  0.00     0.189 HD
ENDROOT
BRANCH   1  11
HETATM   11  C   UNL     1      10.295  13.432  22.401  0.00  0.00     0.260 C 
HETATM   12  N   UNL     1       9.905  14.733  22.773  0.00  0.00    -0.318 N 
HETATM   13  C   UNL     1      10.840  15.821  22.487  0.00  0.00     0.159 C 
HETATM   14  O   UNL     1      11.369  13.235  21.825  0.00  0.00    -0.267 OA
BRANCH  12  15
HETATM   15  C   UNL     1       8.650  15.108  23.306  0.00  0.00     0.037 C 
HETATM   16  C   UNL     1       7.643  15.605  22.490  0.00  0.00     0.030 C 
HETATM   17  C   UNL     1       6.332  15.665  22.963  0.00  0.00     0.010 C 
HETATM   18  C   UNL     1       5.995  15.149  24.228  0.00  0.00    -0.054 C 
HETATM   19  C   UNL     1       7.054  14.873  25.109  0.00  0.00     0.010 C 
HETATM   20  C   UNL     1       8.377  14.864  24.656  0.00  0.00     0.030 C 
BRANCH  18  21
HETATM   21  C   UNL     1       4.538  14.834  24.595  0.00  0.00     0.022 C 
HETATM   22  C   UNL     1       4.361  13.528  25.404  0.00  0.00     0.037 C 
HETATM   23  C   UNL     1       4.777  12.290  24.608  0.00  0.00     0.235 C 
HETATM   24  N   UNL     1       4.035  12.199  23.297  0.00  0.00    -0.075 N 
HETATM   25  C   UNL     1       4.025  13.483  22.507  0.00  0.00     0.235 C 
HETATM   26  C   UNL     1       2.687  11.549  23.401  0.00  0.00     0.269 C 
HETATM   27  H   UNL     1       4.601  11.541  22.743  0.00  0.00     0.279 HD
HETATM   28  C   UNL     1       3.614  14.671  23.360  0.00  0.00     0.037 C 
ENDBRANCH  18  21
ENDBRANCH  12  15
ENDBRANCH   1  11
BRANCH   2  29
HETATM   29  O   UNL     1      10.905  11.198  24.434  0.00  0.00    -0.360 OA
HETATM   30  H   UNL     1      10.815  11.885  25.122  0.00  0.00     0.217 HD
ENDBRANCH   2  29
BRANCH   7  31
HETATM   31  C   UNL     1       5.699  10.740  20.148  0.00  0.00     0.063 C 
BRANCH  31  32
HETATM   32  C   UNL     1       6.190  10.013  18.889  0.00  0.00     0.014 C 
BRANCH  32  33
HETATM   33  C   UNL     1       5.101   9.227  18.110  0.00  0.00    -0.051 C 
HETATM   34  C   UNL     1       4.181  10.181  17.332  0.00  0.00     0.014 C 
HETATM   35  C   UNL     1       5.806   8.297  17.104  0.00  0.00     0.014 C 
HETATM   36  C   UNL     1       4.252   8.364  19.059  0.00  0.00     0.014 C 
ENDBRANCH  32  33
ENDBRANCH  31  32
ENDBRANCH   7  31
TORSDOF 7
ENDMDL
MODEL 2
REMARK VINA RESULT:    -8.115      2.394      3.942
REMARK INTER + INTRA:         -13.011
REMARK INTER:                 -11.394
REMARK INTRA:                  -1.618
REMARK UNBOUND:                -1.813
REMARK  7 active torsions:
REMARK  status: ('A' for Active; 'I' for Inactive)
REMARK    1  A    between atoms: C_8  and  C_9 
REMARK    2  A    between atoms: C_14  and  N_15 
REMARK       I    between atoms: N_15  and  C_17 
REMARK    3  A    between atoms: C_17  and  C_19 
REMARK    4  A    between atoms: C_20  and  O_22 
REMARK    5  A    between atoms: C_26  and  C_30 
REMARK    6  A    between atoms: C_30  and  C_31 
REMARK    7  A    between atoms: C_31  and  C_32 
ROOT
HETATM    1  C   UNL     1      11.253  13.284  24.114  0.00  0.00     0.066 A 
HETATM    2  C   UNL     1      11.635  13.598  22.801  0.00  0.00     0.083 A 
HETATM    3  C   UNL     1      11.709  12.625  21.793  0.00  0.00     0.069 A 
HETATM    4  C   UNL     1      10.781  11.975  24.374  0.00  0.00     0.035 A 
HETATM    5  C   UNL     1      10.798  10.993  23.359  0.00  0.00     0.019 A 
HETATM    6  C   UNL     1      11.300  11.333  22.111  0.00  0.00     0.065 A 
HETATM    7  C   UNL     1      10.392   9.636  23.215  0.00  0.00     0.067 A 
HETATM    8  N   UNL     1      10.691   9.153  22.003  0.00  0.00    -0.178 NA
HETATM    9  N   UNL     1      11.234  10.193  21.364  0.00  0.00    -0.277 N 
HETATM   10  H   UNL     1      11.532  10.052  20.407  0.00  0.00     0.189 HD
ENDROOT
BRANCH   1  11
HETATM   11  C   UNL     1      11.193  14.236  25.279  0.00  0.00     0.260 C 
HETATM   12  N   UNL     1      10.034  14.951  25.639  0.00  0.00    -0.318 N 
HETATM   13  C   UNL     1      10.103  15.776  26.845  0.00  0.00     0.159 C 
HETATM   14  O   UNL     1      12.230  14.339  25.941  0.00  0.00    -0.267 OA
BRANCH  12  15
HETATM   15  C   UNL     1       8.835  15.029  24.893  0.00  0.00     0.037 C 
HETATM   16  C   UNL     1       8.845  15.407  23.557  0.00  0.00     0.030 C 
HETATM   17  C   UNL     1       7.724  15.173  22.761  0.00  0.00     0.010 C 
HETATM   18  C   UNL     1       6.609  14.480  23.268  0.00  0.00    -0.054 C 
HETATM   19  C   UNL     1       6.534  14.321  24.661  0.00  0.00     0.010 C 
HETATM   20  C   UNL     1       7.636  14.605  25.474  0.00  0.00     0.030 C 
BRANCH  18  21
HETATM   21  C   UNL     1       5.564  13.862  22.329  0.00  0.00     0.022 C 
HETATM   22  C   UNL     1       4.385  13.179  23.060  0.00  0.00     0.037 C 
HETATM   23  C   UNL     1       4.835  11.976  23.890  0.00  0.00     0.235 C 
HETATM   24  N   UNL     1       5.583  10.971  23.050  0.00  0.00    -0.075 N 
HETATM   25  C   UNL     1       6.657  11.575  22.181  0.00  0.00     0.235 C 
HETATM   26  C   UNL     1       4.698  10.003  22.322  0.00  0.00     0.269 C 
HETATM   27  H   UNL     1       6.083  10.398  23.744  0.00  0.00     0.279 HD
HETATM   28  C   UNL     1       6.146  12.769  21.394  0.00  0.00     0.037 C 
ENDBRANCH  18  21
ENDBRANCH  12  15
ENDBRANCH   1  11
BRANCH   2  29
HETATM   29  O   UNL     1      11.906  14.864  22.348  0.00  0.00    -0.360 OA
HETATM   30  H   UNL     1      11.269  15.467  22.777  0.00  0.00     0.217 HD
ENDBRANCH   2  29
BRANCH   7  31
HETATM   31  C   UNL     1       9.721   8.746  24.212  0.00  0.00     0.063 C 
BRANCH  31  32
HETATM   32  C   UNL     1       8.194   8.733  24.061  0.00  0.00     0.014 C 
BRANCH  32  33
HETATM   33  C   UNL     1       7.592   7.408  23.520  0.00  0.00    -0.051 C 
HETATM   34  C   UNL     1       7.443   7.453  21.991  0.00  0.00     0.014 C 
HETATM   35  C   UNL     1       8.552   6.260  23.885  0.00  0.00     0.014 C 
HETATM   36  C   UNL     1       6.223   7.118  24.156  0.00  0.00     0.014 C 
ENDBRANCH  32  33
ENDBRANCH  31  32
ENDBRANCH   7  31
TORSDOF 7
ENDMDL
MODEL 3
REMARK VINA RESULT:    -8.111      2.389      6.377
REMARK INTER + INTRA:         -13.006
REMARK INTER:                 -11.409
REMARK INTRA:                  -1.596
REMARK UNBOUND:                -1.813
REMARK  7 active torsions:
REMARK  status: ('A' for Active; 'I' for Inactive)
REMARK    1  A    between atoms: C_8  and  C_9 
REMARK    2  A    between atoms: C_14  and  N_15 
REMARK       I    between atoms: N_15  and  C_17 
REMARK    3  A    between atoms: C_17  and  C_19 
REMARK    4  A    between atoms: C_20  and  O_22 
REMARK    5  A    between atoms: C_26  and  C_30 
REMARK    6  A    between atoms: C_30  and  C_31 
REMARK    7  A    between atoms: C_31  and  C_32 
ROOT
HETATM    1  C   UNL     1       6.240  12.486  21.978  0.00  0.00     0.066 A 
HETATM    2  C   UNL     1       7.238  13.455  21.796  0.00  0.00     0.083 A 
HETATM    3  C   UNL     1       7.074  14.783  22.219  0.00  0.00     0.069 A 
HETATM    4  C   UNL     1       5.107  12.836  22.751  0.00  0.00     0.035 A 
HETATM    5  C   UNL     1       4.947  14.154  23.230  0.00  0.00     0.019 A 
HETATM    6  C   UNL     1       5.912  15.100  22.916  0.00  0.00     0.065 A 
HETATM    7  C   UNL     1       4.012  14.862  24.039  0.00  0.00     0.067 A 
HETATM    8  N   UNL     1       4.332  16.158  24.148  0.00  0.00    -0.178 NA
HETATM    9  N   UNL     1       5.474  16.271  23.465  0.00  0.00    -0.277 N 
HETATM   10  H   UNL     1       5.908  17.185  23.424  0.00  0.00     0.189 HD
ENDROOT
BRANCH   1  11
HETATM   11  C   UNL     1       6.291  11.054  21.516  0.00  0.00     0.260 C 
HETATM   12  N   UNL     1       7.158  10.091  22.068  0.00  0.00    -0.318 N 
HETATM   13  C   UNL     1       7.037   8.719  21.574  0.00  0.00     0.159 C 
HETATM   14  O   UNL     1       5.492  10.749  20.626  0.00  0.00    -0.267 OA
BRANCH  12  15
HETATM   15  C   UNL     1       8.207  10.337  22.984  0.00  0.00     0.037 C 
HETATM   16  C   UNL     1       9.533  10.134  22.627  0.00  0.00     0.030 C 
HETATM   17  C   UNL     1      10.553  10.677  23.409  0.00  0.00     0.010 C 
HETATM   18  C   UNL     1      10.259  11.502  24.510  0.00  0.00    -0.054 C 
HETATM   19  C   UNL     1       8.935  11.497  24.978  0.00  0.00     0.010 C 
HETATM   20  C   UNL     1       7.913  10.908  24.227  0.00  0.00     0.030 C 
BRANCH  18  21
HETATM   21  C   UNL     1      11.326  12.421  25.121  0.00  0.00     0.022 C 
HETATM   22  C   UNL     1      10.793  13.357  26.230  0.00  0.00     0.037 C 
HETATM   23  C   UNL     1       9.760  14.354  25.703  0.00  0.00     0.235 C 
HETATM   24  N   UNL     1      10.309  15.164  24.554  0.00  0.00    -0.075 N 
HETATM   25  C   UNL     1      10.990  14.339  23.491  0.00  0.00     0.235 C 
HETATM   26  C   UNL     1      11.099  16.367  24.977  0.00  0.00     0.269 C 
HETATM   27  H   UNL     1       9.467  15.548  24.104  0.00  0.00     0.279 HD
HETATM   28  C   UNL     1      11.992  13.364  24.084  0.00  0.00     0.037 C 
ENDBRANCH  18  21
ENDBRANCH  12  15
ENDBRANCH   1  11
BRANCH   2  29
HETATM   29  O   UNL     1       8.478  13.210  21.263  0.00  0.00    -0.360 OA
HETATM   30  H   UNL     1       9.090  13.871  21.640  0.00  0.00     0.217 HD
ENDBRANCH   2  29
BRANCH   7  31
HETATM   31  C   UNL     1       2.786  14.351  24.724  0.00  0.00     0.063 C 
BRANCH  31  32
HETATM   32  C   UNL     1       1.512  14.566  23.894  0.00  0.00     0.014 C 
BRANCH  32  33
HETATM   33  C   UNL     1       0.958  13.299  23.190  0.00  0.00    -0.051 C 
HETATM   34  C   UNL     1      -0.524  13.080  23.532  0.00  0.00     0.014 C 
HETATM   35  C   UNL     1       1.084  13.501  21.668  0.00  0.00     0.014 C 
HETATM   36  C   UNL     1       1.761  12.048  23.582  0.00  0.00     0.014 C 
ENDBRANCH  32  33
ENDBRANCH  31  32
ENDBRANCH   7  31
TORSDOF 7
ENDMDL
MODEL 4
REMARK VINA RESULT:    -7.978      2.562      5.640
REMARK INTER + INTRA:         -12.823
REMARK INTER:                 -10.698
REMARK INTRA:                  -2.126
REMARK UNBOUND:                -1.813
REMARK  7 active torsions:
REMARK  status: ('A' for Active; 'I' for Inactive)
REMARK    1  A    between atoms: C_8  and  C_9 
REMARK    2  A    between atoms: C_14  and  N_15 
REMARK       I    between atoms: N_15  and  C_17 
REMARK    3  A    between atoms: C_17  and  C_19 
REMARK    4  A    between atoms: C_20  and  O_22 
REMARK    5  A    between atoms: C_26  and  C_30 
REMARK    6  A    between atoms: C_30  and  C_31 
REMARK    7  A    between atoms: C_31  and  C_32 
ROOT
HETATM    1  C   UNL     1      10.643  13.853  23.689  0.00  0.00     0.066 A 
HETATM    2  C   UNL     1      10.893  13.513  25.027  0.00  0.00     0.083 A 
HETATM    3  C   UNL     1      10.013  13.865  26.062  0.00  0.00     0.069 A 
HETATM    4  C   UNL     1       9.390  14.429  23.371  0.00  0.00     0.035 A 
HETATM    5  C   UNL     1       8.468  14.744  24.393  0.00  0.00     0.019 A 
HETATM    6  C   UNL     1       8.822  14.493  25.712  0.00  0.00     0.065 A 
HETATM    7  C   UNL     1       7.148  15.271  24.479  0.00  0.00     0.067 A 
HETATM    8  N   UNL     1       6.749  15.408  25.750  0.00  0.00    -0.178 NA
HETATM    9  N   UNL     1       7.773  14.934  26.465  0.00  0.00    -0.277 N 
HETATM   10  H   UNL     1       7.681  14.935  27.474  0.00  0.00     0.189 HD
ENDROOT
BRANCH   1  11
HETATM   11  C   UNL     1      11.543  13.573  22.514  0.00  0.00     0.260 C 
HETATM   12  N   UNL     1      11.448  12.412  21.723  0.00  0.00    -0.318 N 
HETATM   13  C   UNL     1      12.335  12.316  20.563  0.00  0.00     0.159 C 
HETATM   14  O   UNL     1      12.371  14.451  22.252  0.00  0.00    -0.267 OA
BRANCH  12  15
HETATM   15  C   UNL     1      10.647  11.279  21.994  0.00  0.00     0.037 C 
HETATM   16  C   UNL     1      11.189  10.139  22.572  0.00  0.00     0.030 C 
HETATM   17  C   UNL     1      10.347   9.172  23.122  0.00  0.00     0.010 C 
HETATM   18  C   UNL     1       8.956   9.371  23.178  0.00  0.00    -0.054 C 
HETATM   19  C   UNL     1       8.425  10.405  22.389  0.00  0.00     0.010 C 
HETATM   20  C   UNL     1       9.265  11.349  21.789  0.00  0.00     0.030 C 
BRANCH  18  21
HETATM   21  C   UNL     1       8.072   8.541  24.118  0.00  0.00     0.022 C 
HETATM   22  C   UNL     1       8.358   7.022  24.074  0.00  0.00     0.037 C 
HETATM   23  C   UNL     1       8.049   6.412  22.706  0.00  0.00     0.235 C 
HETATM   24  N   UNL     1       6.627   6.689  22.284  0.00  0.00    -0.075 N 
HETATM   25  C   UNL     1       6.210   8.129  22.441  0.00  0.00     0.235 C 
HETATM   26  C   UNL     1       5.626   5.713  22.828  0.00  0.00     0.269 C 
HETATM   27  H   UNL     1       6.637   6.517  21.269  0.00  0.00     0.279 HD
HETATM   28  C   UNL     1       6.556   8.674  23.817  0.00  0.00     0.037 C 
ENDBRANCH  18  21
ENDBRANCH  12  15
ENDBRANCH   1  11
BRANCH   2  29
HETATM   29  O   UNL     1      11.956  12.761  25.458  0.00  0.00    -0.360 OA
HETATM   30  H   UNL     1      11.604  11.891  25.726  0.00  0.00     0.217 HD
ENDBRANCH   2  29
BRANCH   7  31
HETATM   31  C   UNL     1       6.223  15.672  23.375  0.00  0.00     0.063 C 
BRANCH  31  32
HETATM   32  C   UNL     1       4.974  14.784  23.298  0.00  0.00     0.014 C 
BRANCH  32  33
HETATM   33  C   UNL     1       5.204  13.366  22.711  0.00  0.00    -0.051 C 
HETATM   34  C   UNL     1       5.604  12.371  23.811  0.00  0.00     0.014 C 
HETATM   35  C   UNL     1       3.884  12.889  22.076  0.00  0.00     0.014 C 
HETATM   36  C   UNL     1       6.289  13.383  21.622  0.00  0.00     0.014 C 
ENDBRANCH  32  33
ENDBRANCH  31  32
ENDBRANCH   7  31
TORSDOF 7
ENDMDL
MODEL 5
REMARK VINA RESULT:    -7.972      2.036      3.297
REMARK INTER + INTRA:         -12.814
REMARK INTER:                 -11.353
REMARK INTRA:                  -1.460
REMARK UNBOUND:                -1.813
REMARK  7 active torsions:
REMARK  status: ('A' for Active; 'I' for Inactive)
REMARK    1  A    between atoms: C_8  and  C_9 
REMARK    2  A    between atoms: C_14  and  N_15 
REMARK       I    between atoms: N_15  and  C_17 
REMARK    3  A    between atoms: C_17  and  C_19 
REMARK    4  A    between atoms: C_20  and  O_22 
REMARK    5  A    between atoms: C_26  and  C_30 
REMARK    6  A    between atoms: C_30  and  C_31 
REMARK    7  A    between atoms: C_31  and  C_32 
ROOT
HETATM    1  C   UNL     1       9.289  12.655  22.454  0.00  0.00     0.066 A 
HETATM    2  C   UNL     1       8.933  12.997  21.140  0.00  0.00     0.083 A 
HETATM    3  C   UNL     1       8.076  12.196  20.369  0.00  0.00     0.069 A 
HETATM    4  C   UNL     1       8.635  11.554  23.056  0.00  0.00     0.035 A 
HETATM    5  C   UNL     1       7.730  10.766  22.313  0.00  0.00     0.019 A 
HETATM    6  C   UNL     1       7.508  11.082  20.980  0.00  0.00     0.065 A 
HETATM    7  C   UNL     1       6.877   9.651  22.555  0.00  0.00     0.067 A 
HETATM    8  N   UNL     1       6.241   9.261  21.443  0.00  0.00    -0.178 NA
HETATM    9  N   UNL     1       6.639  10.137  20.517  0.00  0.00    -0.277 N 
HETATM   10  H   UNL     1       6.265  10.033  19.581  0.00  0.00     0.189 HD
ENDROOT
BRANCH   1  11
HETATM   11  C   UNL     1      10.239  13.411  23.345  0.00  0.00     0.260 C 
HETATM   12  N   UNL     1       9.829  14.421  24.236  0.00  0.00    -0.318 N 
HETATM   13  C   UNL     1      10.853  15.010  25.100  0.00  0.00     0.159 C 
HETATM   14  O   UNL     1      11.424  13.070  23.278  0.00  0.00    -0.267 OA
BRANCH  12  15
HETATM   15  C   UNL     1       8.540  14.997  24.311  0.00  0.00     0.037 C 
HETATM   16  C   UNL     1       7.939  15.559  23.193  0.00  0.00     0.030 C 
HETATM   17  C   UNL     1       6.570  15.826  23.200  0.00  0.00     0.010 C 
HETATM   18  C   UNL     1       5.767  15.455  24.295  0.00  0.00    -0.054 C 
HETATM   19  C   UNL     1       6.427  15.110  25.485  0.00  0.00     0.010 C 
HETATM   20  C   UNL     1       7.809  14.893  25.499  0.00  0.00     0.030 C 
BRANCH  18  21
HETATM   21  C   UNL     1       4.240  15.362  24.164  0.00  0.00     0.022 C 
HETATM   22  C   UNL     1       3.569  14.477  25.239  0.00  0.00     0.037 C 
HETATM   23  C   UNL     1       3.999  13.013  25.139  0.00  0.00     0.235 C 
HETATM   24  N   UNL     1       3.739  12.452  23.763  0.00  0.00    -0.075 N 
HETATM   25  C   UNL     1       4.227  13.331  22.639  0.00  0.00     0.235 C 
HETATM   26  C   UNL     1       2.341  11.945  23.562  0.00  0.00     0.269 C 
HETATM   27  H   UNL     1       4.331  11.611  23.728  0.00  0.00     0.279 HD
HETATM   28  C   UNL     1       3.774  14.772  22.807  0.00  0.00     0.037 C 
ENDBRANCH  18  21
ENDBRANCH  12  15
ENDBRANCH   1  11
BRANCH   2  29
HETATM   29  O   UNL     1       9.312  14.149  20.501  0.00  0.00    -0.360 OA
HETATM   30  H   UNL     1      10.049  13.918  19.903  0.00  0.00     0.217 HD
ENDBRANCH   2  29
BRANCH   7  31
HETATM   31  C   UNL     1       6.640   8.909  23.831  0.00  0.00     0.063 C 
BRANCH  31  32
HETATM   32  C   UNL     1       6.783   7.390  23.667  0.00  0.00     0.014 C 
BRANCH  32  33
HETATM   33  C   UNL     1       8.239   6.874  23.508  0.00  0.00    -0.051 C 
HETATM   34  C   UNL     1       9.241   7.841  24.156  0.00  0.00     0.014 C 
HETATM   35  C   UNL     1       8.345   5.511  24.217  0.00  0.00     0.014 C 
HETATM   36  C   UNL     1       8.602   6.682  22.027  0.00  0.00     0.014 C 
ENDBRANCH  32  33
ENDBRANCH  31  32
ENDBRANCH   7  31
TORSDOF 7
ENDMDL
MODEL 6
REMARK VINA RESULT:    -7.918      2.114      4.592
REMARK INTER + INTRA:         -12.740
REMARK INTER:                 -11.172
REMARK INTRA:                  -1.568
REMARK UNBOUND:                -1.813
REMARK  7 active torsions:
REMARK  status: ('A' for Active; 'I' for Inactive)
REMARK    1  A    between atoms: C_8  and  C_9 
REMARK    2  A    between atoms: C_14  and  N_15 
REMARK       I    between atoms: N_15  and  C_17 
REMARK    3  A    between atoms: C_17  and  C_19 
REMARK    4  A    between atoms: C_20  and  O_22 
REMARK    5  A    between atoms: C_26  and  C_30 
REMARK    6  A    between atoms: C_30  and  C_31 
REMARK    7  A    between atoms: C_31  and  C_32 
ROOT
HETATM    1  C   UNL     1       8.187  13.529  21.765  0.00  0.00     0.066 A 
HETATM    2  C   UNL     1       7.236  14.084  22.635  0.00  0.00     0.083 A 
HETATM    3  C   UNL     1       5.870  13.782  22.535  0.00  0.00     0.069 A 
HETATM    4  C   UNL     1       7.761  12.519  20.869  0.00  0.00     0.035 A 
HETATM    5  C   UNL     1       6.396  12.164  20.789  0.00  0.00     0.019 A 
HETATM    6  C   UNL     1       5.484  12.834  21.592  0.00  0.00     0.065 A 
HETATM    7  C   UNL     1       5.607  11.215  20.079  0.00  0.00     0.067 A 
HETATM    8  N   UNL     1       4.304  11.342  20.360  0.00  0.00    -0.178 NA
HETATM    9  N   UNL     1       4.261  12.319  21.270  0.00  0.00    -0.277 N 
HETATM   10  H   UNL     1       3.354  12.580  21.637  0.00  0.00     0.189 HD
ENDROOT
BRANCH   1  11
HETATM   11  C   UNL     1       9.664  13.825  21.750  0.00  0.00     0.260 C 
HETATM   12  N   UNL     1      10.640  12.926  22.218  0.00  0.00    -0.318 N 
HETATM   13  C   UNL     1      12.042  13.317  22.064  0.00  0.00     0.159 C 
HETATM   14  O   UNL     1       9.987  14.913  21.265  0.00  0.00    -0.267 OA
BRANCH  12  15
HETATM   15  C   UNL     1      10.400  11.720  22.917  0.00  0.00     0.037 C 
HETATM   16  C   UNL     1       9.637  11.703  24.077  0.00  0.00     0.030 C 
HETATM   17  C   UNL     1       9.146  10.493  24.567  0.00  0.00     0.010 C 
HETATM   18  C   UNL     1       9.338   9.293  23.857  0.00  0.00    -0.054 C 
HETATM   19  C   UNL     1      10.296   9.304  22.830  0.00  0.00     0.010 C 
HETATM   20  C   UNL     1      10.835  10.509  22.368  0.00  0.00     0.030 C 
BRANCH  18  21
HETATM   21  C   UNL     1       8.482   8.053  24.148  0.00  0.00     0.022 C 
HETATM   22  C   UNL     1       8.873   6.809  23.316  0.00  0.00     0.037 C 
HETATM   23  C   UNL     1       8.653   7.018  21.818  0.00  0.00     0.235 C 
HETATM   24  N   UNL     1       7.230   7.422  21.518  0.00  0.00    -0.075 N 
HETATM   25  C   UNL     1       6.710   8.534  22.393  0.00  0.00     0.235 C 
HETATM   26  C   UNL     1       6.281   6.268  21.389  0.00  0.00     0.269 C 
HETATM   27  H   UNL     1       7.286   7.823  20.571  0.00  0.00     0.279 HD
HETATM   28  C   UNL     1       6.972   8.267  23.866  0.00  0.00     0.037 C 
ENDBRANCH  18  21
ENDBRANCH  12  15
ENDBRANCH   1  11
BRANCH   2  29
HETATM   29  O   UNL     1       7.530  14.905  23.693  0.00  0.00    -0.360 OA
HETATM   30  H   UNL     1       8.261  14.488  24.188  0.00  0.00     0.217 HD
ENDBRANCH   2  29
BRANCH   7  31
HETATM   31  C   UNL     1       6.046  10.168  19.106  0.00  0.00     0.063 C 
BRANCH  31  32
HETATM   32  C   UNL     1       5.040   9.016  18.983  0.00  0.00     0.014 C 
BRANCH  32  33
HETATM   33  C   UNL     1       4.475   8.779  17.556  0.00  0.00    -0.051 C 
HETATM   34  C   UNL     1       4.195  10.111  16.844  0.00  0.00     0.014 C 
HETATM   35  C   UNL     1       5.530   8.003  16.745  0.00  0.00     0.014 C 
HETATM   36  C   UNL     1       3.184   7.944  17.600  0.00  0.00     0.014 C 
ENDBRANCH  32  33
ENDBRANCH  31  32
ENDBRANCH   7  31
TORSDOF 7
ENDMDL
MODEL 7
REMARK VINA RESULT:    -7.783      2.966      6.271
REMARK INTER + INTRA:         -12.554
REMARK INTER:                 -10.397
REMARK INTRA:                  -2.157
REMARK UNBOUND:                -1.813
REMARK  7 active torsions:
REMARK  status: ('A' for Active; 'I' for Inactive)
REMARK    1  A    between atoms: C_8  and  C_9 
REMARK    2  A    between atoms: C_14  and  N_15 
REMARK       I    between atoms: N_15  and  C_17 
REMARK    3  A    between atoms: C_17  and  C_19 
REMARK    4  A    between atoms: C_20  and  O_22 
REMARK    5  A    between atoms: C_26  and  C_30 
REMARK    6  A    between atoms: C_30  and  C_31 
REMARK    7  A    between atoms: C_31  and  C_32 
ROOT
HETATM    1  C   UNL     1       7.491  11.935  21.317  0.00  0.00     0.066 A 
HETATM    2  C   UNL     1       8.493  11.386  22.132  0.00  0.00     0.083 A 
HETATM    3  C   UNL     1       8.955  12.037  23.286  0.00  0.00     0.069 A 
HETATM    4  C   UNL     1       6.830  13.102  21.770  0.00  0.00     0.035 A 
HETATM    5  C   UNL     1       7.246  13.745  22.956  0.00  0.00     0.019 A 
HETATM    6  C   UNL     1       8.322  13.220  23.658  0.00  0.00     0.065 A 
HETATM    7  C   UNL     1       6.833  14.864  23.734  0.00  0.00     0.067 A 
HETATM    8  N   UNL     1       7.638  15.062  24.786  0.00  0.00    -0.178 NA
HETATM    9  N   UNL     1       8.520  14.061  24.714  0.00  0.00    -0.277 N 
HETATM   10  H   UNL     1       9.231  14.010  25.433  0.00  0.00     0.189 HD
ENDROOT
BRANCH   1  11
HETATM   11  C   UNL     1       6.963  11.348  20.034  0.00  0.00     0.260 C 
HETATM   12  N   UNL     1       5.937  10.386  19.986  0.00  0.00    -0.318 N 
HETATM   13  C   UNL     1       5.470   9.969  18.663  0.00  0.00     0.159 C 
HETATM   14  O   UNL     1       7.467  11.789  18.997  0.00  0.00    -0.267 OA
BRANCH  12  15
HETATM   15  C   UNL     1       5.378   9.703  21.091  0.00  0.00     0.037 C 
HETATM   16  C   UNL     1       5.773   8.410  21.409  0.00  0.00     0.030 C 
HETATM   17  C   UNL     1       5.463   7.879  22.662  0.00  0.00     0.010 C 
HETATM   18  C   UNL     1       4.830   8.663  23.644  0.00  0.00    -0.054 C 
HETATM   19  C   UNL     1       4.244   9.867  23.222  0.00  0.00     0.010 C 
HETATM   20  C   UNL     1       4.505  10.381  21.948  0.00  0.00     0.030 C 
BRANCH  18  21
HETATM   21  C   UNL     1       4.850   8.250  25.122  0.00  0.00     0.022 C 
HETATM   22  C   UNL     1       4.821   6.721  25.350  0.00  0.00     0.037 C 
HETATM   23  C   UNL     1       3.526   6.083  24.846  0.00  0.00     0.235 C 
HETATM   24  N   UNL     1       2.312   6.728  25.468  0.00  0.00    -0.075 N 
HETATM   25  C   UNL     1       2.329   8.235  25.428  0.00  0.00     0.235 C 
HETATM   26  C   UNL     1       1.941   6.168  26.809  0.00  0.00     0.269 C 
HETATM   27  H   UNL     1       1.541   6.447  24.844  0.00  0.00     0.279 HD
HETATM   28  C   UNL     1       3.646   8.801  25.931  0.00  0.00     0.037 C 
ENDBRANCH  18  21
ENDBRANCH  12  15
ENDBRANCH   1  11
BRANCH   2  29
HETATM   29  O   UNL     1       9.070  10.156  21.941  0.00  0.00    -0.360 OA
HETATM   30  H   UNL     1       9.983  10.210  22.282  0.00  0.00     0.217 HD
ENDBRANCH   2  29
BRANCH   7  31
HETATM   31  C   UNL     1       5.681  15.790  23.510  0.00  0.00     0.063 C 
BRANCH  31  32
HETATM   32  C   UNL     1       4.586  15.640  24.574  0.00  0.00     0.014 C 
BRANCH  32  33
HETATM   33  C   UNL     1       3.677  14.391  24.418  0.00  0.00    -0.051 C 
HETATM   34  C   UNL     1       4.305  13.162  25.092  0.00  0.00     0.014 C 
HETATM   35  C   UNL     1       2.329  14.690  25.101  0.00  0.00     0.014 C 
HETATM   36  C   UNL     1       3.411  14.078  22.936  0.00  0.00     0.014 C 
ENDBRANCH  32  33
ENDBRANCH  31  32
ENDBRANCH   7  31
TORSDOF 7
ENDMDL
MODEL 8
REMARK VINA RESULT:    -7.762      1.404      1.994
REMARK INTER + INTRA:         -12.525
REMARK INTER:                 -10.805
REMARK INTRA:                  -1.720
REMARK UNBOUND:                -1.813
REMARK  7 active torsions:
REMARK  status: ('A' for Active; 'I' for Inactive)
REMARK    1  A    between atoms: C_8  and  C_9 
REMARK    2  A    between atoms: C_14  and  N_15 
REMARK       I    between atoms: N_15  and  C_17 
REMARK    3  A    between atoms: C_17  and  C_19 
REMARK    4  A    between atoms: C_20  and  O_22 
REMARK    5  A    between atoms: C_26  and  C_30 
REMARK    6  A    between atoms: C_30  and  C_31 
REMARK    7  A    between atoms: C_31  and  C_32 
ROOT
HETATM    1  C   UNL     1       9.391  12.387  22.797  0.00  0.00     0.066 A 
HETATM    2  C   UNL     1      10.046  11.908  23.941  0.00  0.00     0.083 A 
HETATM    3  C   UNL     1       9.702  10.687  24.541  0.00  0.00     0.069 A 
HETATM    4  C   UNL     1       8.466  11.531  22.152  0.00  0.00     0.035 A 
HETATM    5  C   UNL     1       8.144  10.275  22.711  0.00  0.00     0.019 A 
HETATM    6  C   UNL     1       8.738   9.906  23.910  0.00  0.00     0.065 A 
HETATM    7  C   UNL     1       7.332   9.158  22.364  0.00  0.00     0.067 A 
HETATM    8  N   UNL     1       7.359   8.211  23.311  0.00  0.00    -0.178 NA
HETATM    9  N   UNL     1       8.209   8.687  24.224  0.00  0.00    -0.277 N 
HETATM   10  H   UNL     1       8.391   8.116  25.040  0.00  0.00     0.189 HD
ENDROOT
BRANCH   1  11
HETATM   11  C   UNL     1       9.643  13.702  22.108  0.00  0.00     0.260 C 
HETATM   12  N   UNL     1       8.695  14.741  22.047  0.00  0.00    -0.318 N 
HETATM   13  C   UNL     1       9.112  15.994  21.416  0.00  0.00     0.159 C 
HETATM   14  O   UNL     1      10.766  13.841  21.613  0.00  0.00    -0.267 OA
BRANCH  12  15
HETATM   15  C   UNL     1       7.341  14.662  22.448  0.00  0.00     0.037 C 
HETATM   16  C   UNL     1       6.466  13.770  21.844  0.00  0.00     0.030 C 
HETATM   17  C   UNL     1       5.245  13.476  22.451  0.00  0.00     0.010 C 
HETATM   18  C   UNL     1       4.920  14.004  23.714  0.00  0.00    -0.054 C 
HETATM   19  C   UNL     1       5.706  15.068  24.185  0.00  0.00     0.010 C 
HETATM   20  C   UNL     1       6.906  15.406  23.550  0.00  0.00     0.030 C 
BRANCH  18  21
HETATM   21  C   UNL     1       3.801  13.390  24.568  0.00  0.00     0.022 C 
HETATM   22  C   UNL     1       3.088  12.190  23.902  0.00  0.00     0.037 C 
HETATM   23  C   UNL     1       2.348  12.589  22.625  0.00  0.00     0.235 C 
HETATM   24  N   UNL     1       1.366  13.706  22.880  0.00  0.00    -0.075 N 
HETATM   25  C   UNL     1       1.938  14.860  23.663  0.00  0.00     0.235 C 
HETATM   26  C   UNL     1       0.030  13.244  23.383  0.00  0.00     0.269 C 
HETATM   27  H   UNL     1       1.176  14.082  21.940  0.00  0.00     0.279 HD
HETATM   28  C   UNL     1       2.668  14.392  24.911  0.00  0.00     0.037 C 
ENDBRANCH  18  21
ENDBRANCH  12  15
ENDBRANCH   1  11
BRANCH   2  29
HETATM   29  O   UNL     1      11.112  12.523  24.547  0.00  0.00    -0.360 OA
HETATM   30  H   UNL     1      11.084  13.466  24.293  0.00  0.00     0.217 HD
ENDBRANCH   2  29
BRANCH   7  31
HETATM   31  C   UNL     1       6.495   8.947  21.143  0.00  0.00     0.063 C 
BRANCH  31  32
HETATM   32  C   UNL     1       5.461  10.062  20.935  0.00  0.00     0.014 C 
BRANCH  32  33
HETATM   33  C   UNL     1       5.320  10.571  19.475  0.00  0.00    -0.051 C 
HETATM   34  C   UNL     1       4.331  11.744  19.393  0.00  0.00     0.014 C 
HETATM   35  C   UNL     1       6.701  11.060  19.000  0.00  0.00     0.014 C 
HETATM   36  C   UNL     1       4.853   9.446  18.537  0.00  0.00     0.014 C 
ENDBRANCH  32  33
ENDBRANCH  31  32
ENDBRANCH   7  31
TORSDOF 7
ENDMDL
MODEL 9
REMARK VINA RESULT:    -7.591      2.295      4.575
REMARK INTER + INTRA:         -12.289
REMARK INTER:                 -10.476
REMARK INTRA:                  -1.813
REMARK UNBOUND:                -1.813
REMARK  7 active torsions:
REMARK  status: ('A' for Active; 'I' for Inactive)
REMARK    1  A    between atoms: C_8  and  C_9 
REMARK    2  A    between atoms: C_14  and  N_15 
REMARK       I    between atoms: N_15  and  C_17 
REMARK    3  A    between atoms: C_17  and  C_19 
REMARK    4  A    between atoms: C_20  and  O_22 
REMARK    5  A    between atoms: C_26  and  C_30 
REMARK    6  A    between atoms: C_30  and  C_31 
REMARK    7  A    between atoms: C_31  and  C_32 
ROOT
HETATM    1  C   UNL     1       4.758  12.804  23.382  0.00  0.00     0.066 A 
HETATM    2  C   UNL     1       5.098  11.913  24.412  0.00  0.00     0.083 A 
HETATM    3  C   UNL     1       5.524  10.602  24.153  0.00  0.00     0.069 A 
HETATM    4  C   UNL     1       5.007  12.404  22.047  0.00  0.00     0.035 A 
HETATM    5  C   UNL     1       5.486  11.105  21.767  0.00  0.00     0.019 A 
HETATM    6  C   UNL     1       5.691  10.228  22.823  0.00  0.00     0.065 A 
HETATM    7  C   UNL     1       5.883  10.367  20.616  0.00  0.00     0.067 A 
HETATM    8  N   UNL     1       6.227   9.111  20.925  0.00  0.00    -0.178 NA
HETATM    9  N   UNL     1       6.103   9.057  22.254  0.00  0.00    -0.277 N 
HETATM   10  H   UNL     1       6.327   8.182  22.711  0.00  0.00     0.189 HD
ENDROOT
BRANCH   1  11
HETATM   11  C   UNL     1       4.239  14.207  23.551  0.00  0.00     0.260 C 
HETATM   12  N   UNL     1       5.074  15.333  23.683  0.00  0.00    -0.318 N 
HETATM   13  C   UNL     1       4.427  16.643  23.756  0.00  0.00     0.159 C 
HETATM   14  O   UNL     1       3.010  14.330  23.536  0.00  0.00    -0.267 OA
BRANCH  12  15
HETATM   15  C   UNL     1       6.478  15.317  23.853  0.00  0.00     0.037 C 
HETATM   16  C   UNL     1       7.046  15.092  25.100  0.00  0.00     0.030 C 
HETATM   17  C   UNL     1       8.398  14.762  25.197  0.00  0.00     0.010 C 
HETATM   18  C   UNL     1       9.180  14.568  24.043  0.00  0.00    -0.054 C 
HETATM   19  C   UNL     1       8.649  15.023  22.826  0.00  0.00     0.010 C 
HETATM   20  C   UNL     1       7.308  15.408  22.731  0.00  0.00     0.030 C 
BRANCH  18  21
HETATM   21  C   UNL     1      10.521  13.822  24.109  0.00  0.00     0.022 C 
HETATM   22  C   UNL     1      10.993  13.254  22.750  0.00  0.00     0.037 C 
HETATM   23  C   UNL     1      10.045  12.184  22.208  0.00  0.00     0.235 C 
HETATM   24  N   UNL     1       9.845  11.066  23.201  0.00  0.00    -0.075 N 
HETATM   25  C   UNL     1       9.530  11.536  24.598  0.00  0.00     0.235 C 
HETATM   26  C   UNL     1      10.904  10.004  23.150  0.00  0.00     0.269 C 
HETATM   27  H   UNL     1       8.989  10.599  22.871  0.00  0.00     0.279 HD
HETATM   28  C   UNL     1      10.501  12.605  25.070  0.00  0.00     0.037 C 
ENDBRANCH  18  21
ENDBRANCH  12  15
ENDBRANCH   1  11
BRANCH   2  29
HETATM   29  O   UNL     1       5.118  12.232  25.746  0.00  0.00    -0.360 OA
HETATM   30  H   UNL     1       4.916  13.185  25.818  0.00  0.00     0.217 HD
ENDBRANCH   2  29
BRANCH   7  31
HETATM   31  C   UNL     1       5.939  10.811  19.189  0.00  0.00     0.063 C 
BRANCH  31  32
HETATM   32  C   UNL     1       5.880   9.637  18.202  0.00  0.00     0.014 C 
BRANCH  32  33
HETATM   33  C   UNL     1       4.514   9.435  17.494  0.00  0.00    -0.051 C 
HETATM   34  C   UNL     1       3.636   8.434  18.261  0.00  0.00     0.014 C 
HETATM   35  C   UNL     1       3.787  10.792  17.454  0.00  0.00     0.014 C 
HETATM   36  C   UNL     1       4.703   8.941  16.050  0.00  0.00     0.014 C 
ENDBRANCH  32  33
ENDBRANCH  31  32
ENDBRANCH   7  31
TORSDOF 7
ENDMDL
