MODEL 1
REMARK VINA RESULT:    -7.741      0.000      0.000
REMARK INTER + INTRA:         -13.072
REMARK INTER:                 -11.718
REMARK INTRA:                  -1.353
REMARK UNBOUND:                -1.936
REMARK  8 active torsions:
REMARK  status: ('A' for Active; 'I' for Inactive)
REMARK    1  A    between atoms: C_2  and  C_3 
REMARK    2  A    between atoms: C_3  and  C_4 
REMARK    3  A    between atoms: C_4  and  N_5 
REMARK       I    between atoms: N_5  and  C_7 
REMARK    4  A    between atoms: C_7  and  C_9 
REMARK    5  A    between atoms: C_16  and  C_20 
REMARK    6  A    between atoms: C_17  and  O_19 
REMARK       I    between atoms: C_20  and  N_22 
REMARK    7  A    between atoms: N_22  and  C_24 
REMARK    8  A    between atoms: C_27  and  N_30 
ROOT
HETATM    1  C   UNL     1       7.839  11.949  22.086  0.00  0.00     0.157 A 
HETATM    2  N   UNL     1       7.819  10.622  21.833  0.00  0.00    -0.168 NA
HETATM    3  N   UNL     1       7.091  10.099  22.832  0.00  0.00    -0.277 N 
HETATM    4  H   UNL     1       6.958   9.094  22.852  0.00  0.00     0.189 HD
HETATM    5  C   UNL     1       7.072  12.239  23.256  0.00  0.00     0.029 A 
HETATM    6  C   UNL     1       6.613  11.016  23.723  0.00  0.00     0.065 A 
HETATM    7  C   UNL     1       6.737  13.402  23.972  0.00  0.00     0.036 C 
HETATM    8  C   UNL     1       5.870  13.328  25.073  0.00  0.00     0.066 C 
HETATM    9  C   UNL     1       5.517  12.061  25.564  0.00  0.00     0.083 C 
HETATM   10  C   UNL     1       5.858  10.881  24.889  0.00  0.00     0.069 C 
ENDROOT
BRANCH   8  11
HETATM   11  C   UNL     1       5.365  14.579  25.743  0.00  0.00     0.260 C 
HETATM   12  O   UNL     1       6.187  15.187  26.433  0.00  0.00    -0.267 OA
HETATM   13  N   UNL     1       4.036  15.002  25.557  0.00  0.00    -0.318 N 
HETATM   14  C   UNL     1       3.600  16.288  26.080  0.00  0.00     0.159 C 
BRANCH  13  15
HETATM   15  C   UNL     1       3.013  14.179  25.026  0.00  0.00     0.037 A 
HETATM   16  C   UNL     1       3.022  13.842  23.675  0.00  0.00     0.032 A 
HETATM   17  C   UNL     1       1.907  13.221  23.103  0.00  0.00     0.031 A 
HETATM   18  C   UNL     1       0.750  12.946  23.847  0.00  0.00     0.030 A 
HETATM   19  C   UNL     1       0.805  13.226  25.222  0.00  0.00     0.031 A 
HETATM   20  C   UNL     1       1.931  13.806  25.821  0.00  0.00     0.032 A 
BRANCH  18  21
HETATM   21  N   UNL     1      -0.378  12.398  23.276  0.00  0.00    -0.377 N 
HETATM   22  C   UNL     1      -0.984  11.142  23.733  0.00  0.00     0.149 C 
HETATM   23  C   UNL     1      -2.506  11.347  23.768  0.00  0.00     0.187 C 
HETATM   24  O   UNL     1      -3.018  11.705  22.471  0.00  0.00    -0.388 OA
HETATM   25  C   UNL     1      -2.408  12.929  22.009  0.00  0.00     0.187 C 
HETATM   26  C   UNL     1      -0.875  12.818  21.953  0.00  0.00     0.149 C 
ENDBRANCH  18  21
ENDBRANCH  13  15
ENDBRANCH   8  11
BRANCH   9  27
HETATM   27  O   UNL     1       4.858  11.891  26.754  0.00  0.00    -0.360 OA
HETATM   28  H   UNL     1       4.098  12.513  26.753  0.00  0.00     0.217 HD
ENDBRANCH   9  27
BRANCH   1  29
HETATM   29  C   UNL     1       8.530  12.953  21.238  0.00  0.00     0.274 C 
HETATM   30  N   UNL     1       9.917  13.141  21.379  0.00  0.00    -0.351 N 
HETATM   31  C   UNL     1      10.614  12.741  22.591  0.00  0.00     0.152 C 
HETATM   32  O   UNL     1       7.891  13.637  20.435  0.00  0.00    -0.266 OA
BRANCH  30  33
HETATM   33  C   UNL     1      10.586  14.084  20.481  0.00  0.00     0.125 C 
BRANCH  33  34
HETATM   34  C   UNL     1      11.261  15.258  21.194  0.00  0.00     0.020 C 
BRANCH  34  35
HETATM   35  C   UNL     1      10.260  16.267  21.757  0.00  0.00    -0.003 C 
HETATM   36  C   UNL     1      10.531  16.552  23.225  0.00  0.00     0.005 C 
ENDBRANCH  34  35
ENDBRANCH  33  34
ENDBRANCH  30  33
ENDBRANCH   1  29
TORSDOF 8
ENDMDL
MODEL 2
REMARK VINA RESULT:    -7.389      3.158      6.239
REMARK INTER + INTRA:         -12.565
REMARK INTER:                 -10.621
REMARK INTRA:                  -1.944
REMARK UNBOUND:                -1.936
REMARK  8 active torsions:
REMARK  status: ('A' for Active; 'I' for Inactive)
REMARK    1  A    between atoms: C_2  and  C_3 
REMARK    2  A    between atoms: C_3  and  C_4 
REMARK    3  A    between atoms: C_4  and  N_5 
REMARK       I    between atoms: N_5  and  C_7 
REMARK    4  A    between atoms: C_7  and  C_9 
REMARK    5  A    between atoms: C_16  and  C_20 
REMARK    6  A    between atoms: C_17  and  O_19 
REMARK       I    between atoms: C_20  and  N_22 
REMARK    7  A    between atoms: N_22  and  C_24 
REMARK    8  A    between atoms: C_27  and  N_30 
ROOT
HETATM    1  C   UNL     1       7.893   8.712  23.491  0.00  0.00     0.157 A 
HETATM    2  N   UNL     1       8.288   8.319  24.721  0.00  0.00    -0.168 NA
HETATM    3  N   UNL     1       9.292   9.152  25.034  0.00  0.00    -0.277 N 
HETATM    4  H   UNL     1       9.759   9.025  25.926  0.00  0.00     0.189 HD
HETATM    5  C   UNL     1       8.662   9.837  23.061  0.00  0.00     0.029 A 
HETATM    6  C   UNL     1       9.570  10.087  24.080  0.00  0.00     0.065 A 
HETATM    7  C   UNL     1       8.693  10.652  21.916  0.00  0.00     0.036 C 
HETATM    8  C   UNL     1       9.556  11.756  21.859  0.00  0.00     0.066 C 
HETATM    9  C   UNL     1      10.522  11.906  22.866  0.00  0.00     0.083 C 
HETATM   10  C   UNL     1      10.535  11.094  24.008  0.00  0.00     0.069 C 
ENDROOT
BRANCH   8  11
HETATM   11  C   UNL     1       9.480  12.736  20.717  0.00  0.00     0.260 C 
HETATM   12  O   UNL     1      10.437  12.728  19.938  0.00  0.00    -0.267 OA
HETATM   13  N   UNL     1       8.364  13.583  20.575  0.00  0.00    -0.318 N 
HETATM   14  C   UNL     1       8.227  14.414  19.389  0.00  0.00     0.159 C 
BRANCH  13  15
HETATM   15  C   UNL     1       7.417  13.817  21.600  0.00  0.00     0.037 A 
HETATM   16  C   UNL     1       6.402  12.893  21.835  0.00  0.00     0.032 A 
HETATM   17  C   UNL     1       5.343  13.219  22.688  0.00  0.00     0.031 A 
HETATM   18  C   UNL     1       5.249  14.477  23.303  0.00  0.00     0.030 A 
HETATM   19  C   UNL     1       6.328  15.354  23.108  0.00  0.00     0.031 A 
HETATM   20  C   UNL     1       7.419  15.025  22.294  0.00  0.00     0.032 A 
BRANCH  18  21
HETATM   21  N   UNL     1       4.174  14.832  24.089  0.00  0.00    -0.377 N 
HETATM   22  C   UNL     1       2.880  14.140  24.044  0.00  0.00     0.149 C 
HETATM   23  C   UNL     1       2.403  13.955  25.492  0.00  0.00     0.187 C 
HETATM   24  O   UNL     1       2.271  15.219  26.168  0.00  0.00    -0.388 OA
HETATM   25  C   UNL     1       3.538  15.911  26.195  0.00  0.00     0.187 C 
HETATM   26  C   UNL     1       4.099  16.131  24.780  0.00  0.00     0.149 C 
ENDBRANCH  18  21
ENDBRANCH  13  15
ENDBRANCH   8  11
BRANCH   9  27
HETATM   27  O   UNL     1      11.539  12.821  22.781  0.00  0.00    -0.360 OA
HETATM   28  H   UNL     1      12.335  12.403  23.180  0.00  0.00     0.217 HD
ENDBRANCH   9  27
BRANCH   1  29
HETATM   29  C   UNL     1       6.790   8.079  22.723  0.00  0.00     0.274 C 
HETATM   30  N   UNL     1       5.516   8.676  22.723  0.00  0.00    -0.351 N 
HETATM   31  C   UNL     1       5.116   9.602  23.771  0.00  0.00     0.152 C 
HETATM   32  O   UNL     1       6.979   7.025  22.112  0.00  0.00    -0.266 OA
BRANCH  30  33
HETATM   33  C   UNL     1       4.466   8.075  21.900  0.00  0.00     0.125 C 
BRANCH  33  34
HETATM   34  C   UNL     1       4.545   8.439  20.416  0.00  0.00     0.020 C 
BRANCH  34  35
HETATM   35  C   UNL     1       4.699   9.942  20.181  0.00  0.00    -0.003 C 
HETATM   36  C   UNL     1       6.048  10.267  19.559  0.00  0.00     0.005 C 
ENDBRANCH  34  35
ENDBRANCH  33  34
ENDBRANCH  30  33
ENDBRANCH   1  29
TORSDOF 8
ENDMDL
MODEL 3
REMARK VINA RESULT:    -7.341      2.211      4.406
REMARK INTER + INTRA:         -12.496
REMARK INTER:                 -10.886
REMARK INTRA:                  -1.610
REMARK UNBOUND:                -1.936
REMARK  8 active torsions:
REMARK  status: ('A' for Active; 'I' for Inactive)
REMARK    1  A    between atoms: C_2  and  C_3 
REMARK    2  A    between atoms: C_3  and  C_4 
REMARK    3  A    between atoms: C_4  and  N_5 
REMARK       I    between atoms: N_5  and  C_7 
REMARK    4  A    between atoms: C_7  and  C_9 
REMARK    5  A    between atoms: C_16  and  C_20 
REMARK    6  A    between atoms: C_17  and  O_19 
REMARK       I    between atoms: C_20  and  N_22 
REMARK    7  A    between atoms: N_22  and  C_24 
REMARK    8  A    between atoms: C_27  and  N_30 
ROOT
HETATM    1  C   UNL     1       7.437  10.951  22.974  0.00  0.00     0.157 A 
HETATM    2  N   UNL     1       8.003  10.976  21.748  0.00  0.00    -0.168 NA
HETATM    3  N   UNL     1       7.792  12.224  21.304  0.00  0.00    -0.277 N 
HETATM    4  H   UNL     1       8.124  12.465  20.376  0.00  0.00     0.189 HD
HETATM    5  C   UNL     1       6.895  12.234  23.293  0.00  0.00     0.029 A 
HETATM    6  C   UNL     1       7.130  13.032  22.182  0.00  0.00     0.065 A 
HETATM    7  C   UNL     1       6.220  12.792  24.393  0.00  0.00     0.036 C 
HETATM    8  C   UNL     1       5.888  14.155  24.400  0.00  0.00     0.066 C 
HETATM    9  C   UNL     1       6.055  14.892  23.217  0.00  0.00     0.083 C 
HETATM   10  C   UNL     1       6.700  14.357  22.093  0.00  0.00     0.069 C 
ENDROOT
BRANCH   8  11
HETATM   11  C   UNL     1       5.322  14.805  25.636  0.00  0.00     0.260 C 
HETATM   12  O   UNL     1       6.149  15.185  26.469  0.00  0.00    -0.267 OA
HETATM   13  N   UNL     1       3.932  14.963  25.787  0.00  0.00    -0.318 N 
HETATM   14  C   UNL     1       3.403  15.727  26.906  0.00  0.00     0.159 C 
BRANCH  13  15
HETATM   15  C   UNL     1       2.971  14.282  25.002  0.00  0.00     0.037 A 
HETATM   16  C   UNL     1       2.235  14.974  24.044  0.00  0.00     0.032 A 
HETATM   17  C   UNL     1       1.139  14.362  23.427  0.00  0.00     0.031 A 
HETATM   18  C   UNL     1       0.732  13.062  23.763  0.00  0.00     0.030 A 
HETATM   19  C   UNL     1       1.543  12.364  24.673  0.00  0.00     0.031 A 
HETATM   20  C   UNL     1       2.670  12.947  25.266  0.00  0.00     0.032 A 
BRANCH  18  21
HETATM   21  N   UNL     1      -0.387  12.477  23.211  0.00  0.00    -0.377 N 
HETATM   22  C   UNL     1      -0.984  11.238  23.723  0.00  0.00     0.149 C 
HETATM   23  C   UNL     1      -2.508  11.429  23.737  0.00  0.00     0.187 C 
HETATM   24  O   UNL     1      -3.014  11.721  22.422  0.00  0.00    -0.388 OA
HETATM   25  C   UNL     1      -2.412  12.929  21.907  0.00  0.00     0.187 C 
HETATM   26  C   UNL     1      -0.878  12.830  21.867  0.00  0.00     0.149 C 
ENDBRANCH  18  21
ENDBRANCH  13  15
ENDBRANCH   8  11
BRANCH   9  27
HETATM   27  O   UNL     1       5.560  16.162  23.064  0.00  0.00    -0.360 OA
HETATM   28  H   UNL     1       6.318  16.779  23.169  0.00  0.00     0.217 HD
ENDBRANCH   9  27
BRANCH   1  29
HETATM   29  C   UNL     1       7.422   9.764  23.867  0.00  0.00     0.274 C 
HETATM   30  N   UNL     1       6.387   8.819  23.745  0.00  0.00    -0.351 N 
HETATM   31  C   UNL     1       5.120   9.163  23.120  0.00  0.00     0.152 C 
HETATM   32  O   UNL     1       8.294   9.619  24.726  0.00  0.00    -0.266 OA
BRANCH  30  33
HETATM   33  C   UNL     1       6.436   7.622  24.586  0.00  0.00     0.125 C 
BRANCH  33  34
HETATM   34  C   UNL     1       6.524   6.309  23.804  0.00  0.00     0.020 C 
BRANCH  34  35
HETATM   35  C   UNL     1       7.512   6.376  22.639  0.00  0.00    -0.003 C 
HETATM   36  C   UNL     1       7.805   4.992  22.084  0.00  0.00     0.005 C 
ENDBRANCH  34  35
ENDBRANCH  33  34
ENDBRANCH  30  33
ENDBRANCH   1  29
TORSDOF 8
ENDMDL
MODEL 4
REMARK VINA RESULT:    -7.303      2.715      7.380
REMARK INTER + INTRA:         -12.441
REMARK INTER:                 -10.618
REMARK INTRA:                  -1.823
REMARK UNBOUND:                -1.936
REMARK  8 active torsions:
REMARK  status: ('A' for Active; 'I' for Inactive)
REMARK    1  A    between atoms: C_2  and  C_3 
REMARK    2  A    between atoms: C_3  and  C_4 
REMARK    3  A    between atoms: C_4  and  N_5 
REMARK       I    between atoms: N_5  and  C_7 
REMARK    4  A    between atoms: C_7  and  C_9 
REMARK    5  A    between atoms: C_16  and  C_20 
REMARK    6  A    between atoms: C_17  and  O_19 
REMARK       I    between atoms: C_20  and  N_22 
REMARK    7  A    between atoms: N_22  and  C_24 
REMARK    8  A    between atoms: C_27  and  N_30 
ROOT
HETATM    1  C   UNL     1       6.207  14.850  25.741  0.00  0.00     0.157 A 
HETATM    2  N   UNL     1       6.751  14.902  26.977  0.00  0.00    -0.168 NA
HETATM    3  N   UNL     1       8.043  14.594  26.789  0.00  0.00    -0.277 N 
HETATM    4  H   UNL     1       8.649  14.555  27.603  0.00  0.00     0.189 HD
HETATM    5  C   UNL     1       7.209  14.531  24.774  0.00  0.00     0.029 A 
HETATM    6  C   UNL     1       8.386  14.358  25.490  0.00  0.00     0.065 A 
HETATM    7  C   UNL     1       7.237  14.357  23.380  0.00  0.00     0.036 C 
HETATM    8  C   UNL     1       8.454  14.116  22.723  0.00  0.00     0.066 C 
HETATM    9  C   UNL     1       9.593  13.849  23.498  0.00  0.00     0.083 C 
HETATM   10  C   UNL     1       9.592  13.987  24.892  0.00  0.00     0.069 C 
ENDROOT
BRANCH   8  11
HETATM   11  C   UNL     1       8.528  14.098  21.218  0.00  0.00     0.260 C 
HETATM   12  O   UNL     1       8.720  15.190  20.677  0.00  0.00    -0.267 OA
HETATM   13  N   UNL     1       8.395  12.889  20.510  0.00  0.00    -0.318 N 
HETATM   14  C   UNL     1       8.620  12.856  19.074  0.00  0.00     0.159 C 
BRANCH  13  15
HETATM   15  C   UNL     1       7.886  11.695  21.077  0.00  0.00     0.037 A 
HETATM   16  C   UNL     1       6.511  11.502  21.177  0.00  0.00     0.032 A 
HETATM   17  C   UNL     1       6.007  10.437  21.931  0.00  0.00     0.031 A 
HETATM   18  C   UNL     1       6.851   9.557  22.624  0.00  0.00     0.030 A 
HETATM   19  C   UNL     1       8.232   9.732  22.437  0.00  0.00     0.031 A 
HETATM   20  C   UNL     1       8.753  10.766  21.649  0.00  0.00     0.032 A 
BRANCH  18  21
HETATM   21  N   UNL     1       6.362   8.547  23.424  0.00  0.00    -0.377 N 
HETATM   22  C   UNL     1       4.933   8.360  23.702  0.00  0.00     0.149 C 
HETATM   23  C   UNL     1       4.634   6.856  23.602  0.00  0.00     0.187 C 
HETATM   24  O   UNL     1       5.428   6.100  24.534  0.00  0.00    -0.388 OA
HETATM   25  C   UNL     1       6.835   6.298  24.277  0.00  0.00     0.187 C 
HETATM   26  C   UNL     1       7.224   7.785  24.345  0.00  0.00     0.149 C 
ENDBRANCH  18  21
ENDBRANCH  13  15
ENDBRANCH   8  11
BRANCH   9  27
HETATM   27  O   UNL     1      10.765  13.392  22.952  0.00  0.00    -0.360 OA
HETATM   28  H   UNL     1      10.940  13.937  22.153  0.00  0.00     0.217 HD
ENDBRANCH   9  27
BRANCH   1  29
HETATM   29  C   UNL     1       4.779  15.125  25.442  0.00  0.00     0.274 C 
HETATM   30  N   UNL     1       3.820  14.119  25.660  0.00  0.00    -0.351 N 
HETATM   31  C   UNL     1       4.198  12.717  25.728  0.00  0.00     0.152 C 
HETATM   32  O   UNL     1       4.437  16.217  24.982  0.00  0.00    -0.266 OA
BRANCH  30  33
HETATM   33  C   UNL     1       2.410  14.439  25.427  0.00  0.00     0.125 C 
BRANCH  33  34
HETATM   34  C   UNL     1       1.951  14.234  23.982  0.00  0.00     0.020 C 
BRANCH  34  35
HETATM   35  C   UNL     1       0.519  13.706  23.883  0.00  0.00    -0.003 C 
HETATM   36  C   UNL     1       0.228  13.156  22.496  0.00  0.00     0.005 C 
ENDBRANCH  34  35
ENDBRANCH  33  34
ENDBRANCH  30  33
ENDBRANCH   1  29
TORSDOF 8
ENDMDL
MODEL 5
REMARK VINA RESULT:    -7.201      3.736      9.041
REMARK INTER + INTRA:         -12.295
REMARK INTER:                 -10.696
REMARK INTRA:                  -1.599
REMARK UNBOUND:                -1.936
REMARK  8 active torsions:
REMARK  status: ('A' for Active; 'I' for Inactive)
REMARK    1  A    between atoms: C_2  and  C_3 
REMARK    2  A    between atoms: C_3  and  C_4 
REMARK    3  A    between atoms: C_4  and  N_5 
REMARK       I    between atoms: N_5  and  C_7 
REMARK    4  A    between atoms: C_7  and  C_9 
REMARK    5  A    between atoms: C_16  and  C_20 
REMARK    6  A    between atoms: C_17  and  O_19 
REMARK       I    between atoms: C_20  and  N_22 
REMARK    7  A    between atoms: N_22  and  C_24 
REMARK    8  A    between atoms: C_27  and  N_30 
ROOT
HETATM    1  C   UNL     1      -1.830  11.516  25.514  0.00  0.00     0.157 A 
HETATM    2  N   UNL     1      -2.690  11.399  24.479  0.00  0.00    -0.168 NA
HETATM    3  N   UNL     1      -2.178  12.191  23.524  0.00  0.00    -0.277 N 
HETATM    4  H   UNL     1      -2.682  12.270  22.647  0.00  0.00     0.189 HD
HETATM    5  C   UNL     1      -0.749  12.380  25.162  0.00  0.00     0.029 A 
HETATM    6  C   UNL     1      -1.013  12.811  23.870  0.00  0.00     0.065 A 
HETATM    7  C   UNL     1       0.409  12.850  25.806  0.00  0.00     0.036 C 
HETATM    8  C   UNL     1       1.325  13.655  25.111  0.00  0.00     0.066 C 
HETATM    9  C   UNL     1       0.963  14.145  23.847  0.00  0.00     0.083 C 
HETATM   10  C   UNL     1      -0.197  13.717  23.188  0.00  0.00     0.069 C 
ENDROOT
BRANCH   8  11
HETATM   11  C   UNL     1       2.649  14.025  25.727  0.00  0.00     0.260 C 
HETATM   12  O   UNL     1       2.633  14.989  26.497  0.00  0.00    -0.267 OA
HETATM   13  N   UNL     1       3.808  13.283  25.429  0.00  0.00    -0.318 N 
HETATM   14  C   UNL     1       5.047  13.548  26.143  0.00  0.00     0.159 C 
BRANCH  13  15
HETATM   15  C   UNL     1       3.909  12.382  24.342  0.00  0.00     0.037 A 
HETATM   16  C   UNL     1       3.711  11.019  24.546  0.00  0.00     0.032 A 
HETATM   17  C   UNL     1       4.025  10.107  23.533  0.00  0.00     0.031 A 
HETATM   18  C   UNL     1       4.567  10.521  22.307  0.00  0.00     0.030 A 
HETATM   19  C   UNL     1       4.679  11.906  22.105  0.00  0.00     0.031 A 
HETATM   20  C   UNL     1       4.326  12.836  23.092  0.00  0.00     0.032 A 
BRANCH  18  21
HETATM   21  N   UNL     1       4.944   9.625  21.330  0.00  0.00    -0.377 N 
HETATM   22  C   UNL     1       5.135   8.192  21.582  0.00  0.00     0.149 C 
HETATM   23  C   UNL     1       4.494   7.426  20.415  0.00  0.00     0.187 C 
HETATM   24  O   UNL     1       5.085   7.796  19.156  0.00  0.00    -0.388 OA
HETATM   25  C   UNL     1       4.917   9.209  18.915  0.00  0.00     0.187 C 
HETATM   26  C   UNL     1       5.524  10.057  20.046  0.00  0.00     0.149 C 
ENDBRANCH  18  21
ENDBRANCH  13  15
ENDBRANCH   8  11
BRANCH   9  27
HETATM   27  O   UNL     1       1.692  15.105  23.193  0.00  0.00    -0.360 OA
HETATM   28  H   UNL     1       1.764  14.821  22.254  0.00  0.00     0.217 HD
ENDBRANCH   9  27
BRANCH   1  29
HETATM   29  C   UNL     1      -1.981  10.809  26.812  0.00  0.00     0.274 C 
HETATM   30  N   UNL     1      -1.102   9.759  27.134  0.00  0.00    -0.351 N 
HETATM   31  C   UNL     1      -0.366   9.047  26.101  0.00  0.00     0.152 C 
HETATM   32  O   UNL     1      -2.884  11.122  27.591  0.00  0.00    -0.266 OA
BRANCH  30  33
HETATM   33  C   UNL     1      -1.224   9.128  28.449  0.00  0.00     0.125 C 
BRANCH  33  34
HETATM   34  C   UNL     1      -0.146   8.083  28.746  0.00  0.00     0.020 C 
BRANCH  34  35
HETATM   35  C   UNL     1      -0.708   6.817  29.393  0.00  0.00    -0.003 C 
HETATM   36  C   UNL     1      -1.815   6.210  28.546  0.00  0.00     0.005 C 
ENDBRANCH  34  35
ENDBRANCH  33  34
ENDBRANCH  30  33
ENDBRANCH   1  29
TORSDOF 8
ENDMDL
MODEL 6
REMARK VINA RESULT:    -7.140      3.405      7.722
REMARK INTER + INTRA:         -12.206
REMARK INTER:                 -10.515
REMARK INTRA:                  -1.691
REMARK UNBOUND:                -1.936
REMARK  8 active torsions:
REMARK  status: ('A' for Active; 'I' for Inactive)
REMARK    1  A    between atoms: C_2  and  C_3 
REMARK    2  A    between atoms: C_3  and  C_4 
REMARK    3  A    between atoms: C_4  and  N_5 
REMARK       I    between atoms: N_5  and  C_7 
REMARK    4  A    between atoms: C_7  and  C_9 
REMARK    5  A    between atoms: C_16  and  C_20 
REMARK    6  A    between atoms: C_17  and  O_19 
REMARK       I    between atoms: C_20  and  N_22 
REMARK    7  A    between atoms: N_22  and  C_24 
REMARK    8  A    between atoms: C_27  and  N_30 
ROOT
HETATM    1  C   UNL     1       1.309   7.912  26.202  0.00  0.00     0.157 A 
HETATM    2  N   UNL     1       1.288   7.357  27.433  0.00  0.00    -0.168 NA
HETATM    3  N   UNL     1       0.267   7.962  28.058  0.00  0.00    -0.277 N 
HETATM    4  H   UNL     1       0.076   7.707  29.021  0.00  0.00     0.189 HD
HETATM    5  C   UNL     1       0.247   8.859  26.069  0.00  0.00     0.029 A 
HETATM    6  C   UNL     1      -0.401   8.877  27.297  0.00  0.00     0.065 A 
HETATM    7  C   UNL     1      -0.218   9.708  25.050  0.00  0.00     0.036 C 
HETATM    8  C   UNL     1      -1.376  10.476  25.245  0.00  0.00     0.066 C 
HETATM    9  C   UNL     1      -1.933  10.536  26.532  0.00  0.00     0.083 C 
HETATM   10  C   UNL     1      -1.476   9.723  27.577  0.00  0.00     0.069 C 
ENDROOT
BRANCH   8  11
HETATM   11  C   UNL     1      -1.985  11.257  24.109  0.00  0.00     0.260 C 
HETATM   12  O   UNL     1      -3.007  10.776  23.614  0.00  0.00    -0.267 OA
HETATM   13  N   UNL     1      -1.400  12.462  23.677  0.00  0.00    -0.318 N 
HETATM   14  C   UNL     1      -2.077  13.286  22.686  0.00  0.00     0.159 C 
BRANCH  13  15
HETATM   15  C   UNL     1      -0.089  12.870  24.020  0.00  0.00     0.037 A 
HETATM   16  C   UNL     1       0.129  13.611  25.179  0.00  0.00     0.032 A 
HETATM   17  C   UNL     1       1.376  14.202  25.407  0.00  0.00     0.031 A 
HETATM   18  C   UNL     1       2.425  14.097  24.481  0.00  0.00     0.030 A 
HETATM   19  C   UNL     1       2.197  13.278  23.363  0.00  0.00     0.031 A 
HETATM   20  C   UNL     1       0.969  12.641  23.143  0.00  0.00     0.032 A 
BRANCH  18  21
HETATM   21  N   UNL     1       3.633  14.733  24.664  0.00  0.00    -0.377 N 
HETATM   22  C   UNL     1       4.340  14.764  25.950  0.00  0.00     0.149 C 
HETATM   23  C   UNL     1       5.828  14.510  25.667  0.00  0.00     0.187 C 
HETATM   24  O   UNL     1       6.371  15.500  24.775  0.00  0.00    -0.388 OA
HETATM   25  C   UNL     1       5.664  15.485  23.516  0.00  0.00     0.187 C 
HETATM   26  C   UNL     1       4.156  15.723  23.705  0.00  0.00     0.149 C 
ENDBRANCH  18  21
ENDBRANCH  13  15
ENDBRANCH   8  11
BRANCH   9  27
HETATM   27  O   UNL     1      -2.925  11.422  26.865  0.00  0.00    -0.360 OA
HETATM   28  H   UNL     1      -3.403  11.642  26.034  0.00  0.00     0.217 HD
ENDBRANCH   9  27
BRANCH   1  29
HETATM   29  C   UNL     1       2.278   7.552  25.136  0.00  0.00     0.274 C 
HETATM   30  N   UNL     1       3.534   8.185  25.099  0.00  0.00    -0.351 N 
HETATM   31  C   UNL     1       3.754   9.464  25.755  0.00  0.00     0.152 C 
HETATM   32  O   UNL     1       1.978   6.723  24.274  0.00  0.00    -0.266 OA
BRANCH  30  33
HETATM   33  C   UNL     1       4.498   7.760  24.083  0.00  0.00     0.125 C 
BRANCH  33  34
HETATM   34  C   UNL     1       5.769   8.611  24.029  0.00  0.00     0.020 C 
BRANCH  34  35
HETATM   35  C   UNL     1       7.035   7.808  24.331  0.00  0.00    -0.003 C 
HETATM   36  C   UNL     1       8.215   8.724  24.614  0.00  0.00     0.005 C 
ENDBRANCH  34  35
ENDBRANCH  33  34
ENDBRANCH  30  33
ENDBRANCH   1  29
TORSDOF 8
ENDMDL
MODEL 7
REMARK VINA RESULT:    -7.136      4.085      7.702
REMARK INTER + INTRA:         -12.202
REMARK INTER:                 -10.398
REMARK INTRA:                  -1.804
REMARK UNBOUND:                -1.936
REMARK  8 active torsions:
REMARK  status: ('A' for Active; 'I' for Inactive)
REMARK    1  A    between atoms: C_2  and  C_3 
REMARK    2  A    between atoms: C_3  and  C_4 
REMARK    3  A    between atoms: C_4  and  N_5 
REMARK       I    between atoms: N_5  and  C_7 
REMARK    4  A    between atoms: C_7  and  C_9 
REMARK    5  A    between atoms: C_16  and  C_20 
REMARK    6  A    between atoms: C_17  and  O_19 
REMARK       I    between atoms: C_20  and  N_22 
REMARK    7  A    between atoms: N_22  and  C_24 
REMARK    8  A    between atoms: C_27  and  N_30 
ROOT
HETATM    1  C   UNL     1       1.405  11.958  24.125  0.00  0.00     0.157 A 
HETATM    2  N   UNL     1       0.308  12.422  23.489  0.00  0.00    -0.168 NA
HETATM    3  N   UNL     1      -0.558  11.397  23.521  0.00  0.00    -0.277 N 
HETATM    4  H   UNL     1      -1.461  11.520  23.075  0.00  0.00     0.189 HD
HETATM    5  C   UNL     1       1.183  10.623  24.583  0.00  0.00     0.029 A 
HETATM    6  C   UNL     1      -0.095  10.285  24.161  0.00  0.00     0.065 A 
HETATM    7  C   UNL     1       1.934   9.668  25.291  0.00  0.00     0.036 C 
HETATM    8  C   UNL     1       1.356   8.440  25.649  0.00  0.00     0.066 C 
HETATM    9  C   UNL     1       0.102   8.108  25.113  0.00  0.00     0.083 C 
HETATM   10  C   UNL     1      -0.661   9.027  24.381  0.00  0.00     0.069 C 
ENDROOT
BRANCH   8  11
HETATM   11  C   UNL     1       2.084   7.479  26.552  0.00  0.00     0.260 C 
HETATM   12  O   UNL     1       1.781   7.531  27.747  0.00  0.00    -0.267 OA
HETATM   13  N   UNL     1       3.033   6.583  26.025  0.00  0.00    -0.318 N 
HETATM   14  C   UNL     1       3.617   5.557  26.875  0.00  0.00     0.159 C 
BRANCH  13  15
HETATM   15  C   UNL     1       3.603   6.707  24.735  0.00  0.00     0.037 A 
HETATM   16  C   UNL     1       4.760   7.459  24.553  0.00  0.00     0.032 A 
HETATM   17  C   UNL     1       5.198   7.767  23.261  0.00  0.00     0.031 A 
HETATM   18  C   UNL     1       4.486   7.361  22.122  0.00  0.00     0.030 A 
HETATM   19  C   UNL     1       3.369   6.538  22.339  0.00  0.00     0.031 A 
HETATM   20  C   UNL     1       2.943   6.182  23.625  0.00  0.00     0.032 A 
BRANCH  18  21
HETATM   21  N   UNL     1       4.872   7.718  20.849  0.00  0.00    -0.377 N 
HETATM   22  C   UNL     1       5.086   6.747  19.770  0.00  0.00     0.149 C 
HETATM   23  C   UNL     1       4.453   7.323  18.495  0.00  0.00     0.187 C 
HETATM   24  O   UNL     1       5.033   8.593  18.146  0.00  0.00    -0.388 OA
HETATM   25  C   UNL     1       4.843   9.544  19.215  0.00  0.00     0.187 C 
HETATM   26  C   UNL     1       5.441   9.043  20.540  0.00  0.00     0.149 C 
ENDBRANCH  18  21
ENDBRANCH  13  15
ENDBRANCH   8  11
BRANCH   9  27
HETATM   27  O   UNL     1      -0.439   6.853  25.229  0.00  0.00    -0.360 OA
HETATM   28  H   UNL     1       0.311   6.223  25.305  0.00  0.00     0.217 HD
ENDBRANCH   9  27
BRANCH   1  29
HETATM   29  C   UNL     1       2.644  12.748  24.345  0.00  0.00     0.274 C 
HETATM   30  N   UNL     1       2.701  13.662  25.413  0.00  0.00    -0.351 N 
HETATM   31  C   UNL     1       1.491  14.190  26.022  0.00  0.00     0.152 C 
HETATM   32  O   UNL     1       3.605  12.627  23.582  0.00  0.00    -0.266 OA
BRANCH  30  33
HETATM   33  C   UNL     1       3.957  14.374  25.653  0.00  0.00     0.125 C 
BRANCH  33  34
HETATM   34  C   UNL     1       3.903  15.869  25.327  0.00  0.00     0.020 C 
BRANCH  34  35
HETATM   35  C   UNL     1       4.171  16.165  23.851  0.00  0.00    -0.003 C 
HETATM   36  C   UNL     1       5.487  15.556  23.396  0.00  0.00     0.005 C 
ENDBRANCH  34  35
ENDBRANCH  33  34
ENDBRANCH  30  33
ENDBRANCH   1  29
TORSDOF 8
ENDMDL
MODEL 8
REMARK VINA RESULT:    -7.063      3.412      5.134
REMARK INTER + INTRA:         -12.096
REMARK INTER:                 -10.160
REMARK INTRA:                  -1.936
REMARK UNBOUND:                -1.936
REMARK  8 active torsions:
REMARK  status: ('A' for Active; 'I' for Inactive)
REMARK    1  A    between atoms: C_2  and  C_3 
REMARK    2  A    between atoms: C_3  and  C_4 
REMARK    3  A    between atoms: C_4  and  N_5 
REMARK       I    between atoms: N_5  and  C_7 
REMARK    4  A    between atoms: C_7  and  C_9 
REMARK    5  A    between atoms: C_16  and  C_20 
REMARK    6  A    between atoms: C_17  and  O_19 
REMARK       I    between atoms: C_20  and  N_22 
REMARK    7  A    between atoms: N_22  and  C_24 
REMARK    8  A    between atoms: C_27  and  N_30 
ROOT
HETATM    1  C   UNL     1       9.991  11.242  23.110  0.00  0.00     0.157 A 
HETATM    2  N   UNL     1      10.886  11.212  24.120  0.00  0.00    -0.168 NA
HETATM    3  N   UNL     1      10.482  10.197  24.899  0.00  0.00    -0.277 N 
HETATM    4  H   UNL     1      11.009  10.001  25.743  0.00  0.00     0.189 HD
HETATM    5  C   UNL     1       9.034  10.193  23.266  0.00  0.00     0.029 A 
HETATM    6  C   UNL     1       9.373   9.543  24.445  0.00  0.00     0.065 A 
HETATM    7  C   UNL     1       7.915   9.740  22.546  0.00  0.00     0.036 C 
HETATM    8  C   UNL     1       7.225   8.591  22.962  0.00  0.00     0.066 C 
HETATM    9  C   UNL     1       7.543   8.033  24.210  0.00  0.00     0.083 C 
HETATM   10  C   UNL     1       8.636   8.478  24.966  0.00  0.00     0.069 C 
ENDROOT
BRANCH   8  11
HETATM   11  C   UNL     1       6.135   7.996  22.110  0.00  0.00     0.260 C 
HETATM   12  O   UNL     1       6.450   7.000  21.453  0.00  0.00    -0.267 OA
HETATM   13  N   UNL     1       4.845   8.560  22.102  0.00  0.00    -0.318 N 
HETATM   14  C   UNL     1       3.761   7.891  21.399  0.00  0.00     0.159 C 
BRANCH  13  15
HETATM   15  C   UNL     1       4.547   9.850  22.602  0.00  0.00     0.037 A 
HETATM   16  C   UNL     1       4.704  10.968  21.787  0.00  0.00     0.032 A 
HETATM   17  C   UNL     1       4.625  12.251  22.337  0.00  0.00     0.031 A 
HETATM   18  C   UNL     1       4.418  12.457  23.710  0.00  0.00     0.030 A 
HETATM   19  C   UNL     1       4.184  11.312  24.488  0.00  0.00     0.031 A 
HETATM   20  C   UNL     1       4.214  10.021  23.945  0.00  0.00     0.032 A 
BRANCH  18  21
HETATM   21  N   UNL     1       4.408  13.715  24.271  0.00  0.00    -0.377 N 
HETATM   22  C   UNL     1       5.004  14.890  23.624  0.00  0.00     0.149 C 
HETATM   23  C   UNL     1       4.028  16.063  23.803  0.00  0.00     0.187 C 
HETATM   24  O   UNL     1       3.777  16.331  25.194  0.00  0.00    -0.388 OA
HETATM   25  C   UNL     1       3.210  15.170  25.838  0.00  0.00     0.187 C 
HETATM   26  C   UNL     1       4.121  13.938  25.699  0.00  0.00     0.149 C 
ENDBRANCH  18  21
ENDBRANCH  13  15
ENDBRANCH   8  11
BRANCH   9  27
HETATM   27  O   UNL     1       6.783   7.052  24.793  0.00  0.00    -0.360 OA
HETATM   28  H   UNL     1       6.666   6.343  24.122  0.00  0.00     0.217 HD
ENDBRANCH   9  27
BRANCH   1  29
HETATM   29  C   UNL     1      10.031  12.209  21.983  0.00  0.00     0.274 C 
HETATM   30  N   UNL     1       9.417  13.466  22.128  0.00  0.00    -0.351 N 
HETATM   31  C   UNL     1       8.383  13.692  23.125  0.00  0.00     0.152 C 
HETATM   32  O   UNL     1      10.574  11.905  20.919  0.00  0.00    -0.266 OA
BRANCH  30  33
HETATM   33  C   UNL     1       9.534  14.428  21.031  0.00  0.00     0.125 C 
BRANCH  33  34
HETATM   34  C   UNL     1      10.674  15.436  21.199  0.00  0.00     0.020 C 
BRANCH  34  35
HETATM   35  C   UNL     1      10.240  16.707  21.930  0.00  0.00    -0.003 C 
HETATM   36  C   UNL     1      10.650  16.668  23.393  0.00  0.00     0.005 C 
ENDBRANCH  34  35
ENDBRANCH  33  34
ENDBRANCH  30  33
ENDBRANCH   1  29
TORSDOF 8
ENDMDL
MODEL 9
REMARK VINA RESULT:    -7.052      3.606      5.218
REMARK INTER + INTRA:         -12.080
REMARK INTER:                 -10.229
REMARK INTRA:                  -1.851
REMARK UNBOUND:                -1.936
REMARK  8 active torsions:
REMARK  status: ('A' for Active; 'I' for Inactive)
REMARK    1  A    between atoms: C_2  and  C_3 
REMARK    2  A    between atoms: C_3  and  C_4 
REMARK    3  A    between atoms: C_4  and  N_5 
REMARK       I    between atoms: N_5  and  C_7 
REMARK    4  A    between atoms: C_7  and  C_9 
REMARK    5  A    between atoms: C_16  and  C_20 
REMARK    6  A    between atoms: C_17  and  O_19 
REMARK       I    between atoms: C_20  and  N_22 
REMARK    7  A    between atoms: N_22  and  C_24 
REMARK    8  A    between atoms: C_27  and  N_30 
ROOT
HETATM    1  C   UNL     1       5.965  10.192  20.616  0.00  0.00     0.157 A 
HETATM    2  N   UNL     1       5.640  10.205  19.305  0.00  0.00    -0.168 NA
HETATM    3  N   UNL     1       4.974   9.056  19.112  0.00  0.00    -0.277 N 
HETATM    4  H   UNL     1       4.645   8.845  18.175  0.00  0.00     0.189 HD
HETATM    5  C   UNL     1       5.452   9.014  21.240  0.00  0.00     0.029 A 
HETATM    6  C   UNL     1       4.827   8.292  20.233  0.00  0.00     0.065 A 
HETATM    7  C   UNL     1       5.467   8.481  22.541  0.00  0.00     0.036 C 
HETATM    8  C   UNL     1       4.772   7.296  22.826  0.00  0.00     0.066 C 
HETATM    9  C   UNL     1       4.245   6.554  21.758  0.00  0.00     0.083 C 
HETATM   10  C   UNL     1       4.238   7.044  20.445  0.00  0.00     0.069 C 
ENDROOT
BRANCH   8  11
HETATM   11  C   UNL     1       4.634   6.805  24.244  0.00  0.00     0.260 C 
HETATM   12  O   UNL     1       5.288   5.798  24.529  0.00  0.00    -0.267 OA
HETATM   13  N   UNL     1       3.811   7.487  25.160  0.00  0.00    -0.318 N 
HETATM   14  C   UNL     1       3.803   7.099  26.562  0.00  0.00     0.159 C 
BRANCH  13  15
HETATM   15  C   UNL     1       2.839   8.445  24.784  0.00  0.00     0.037 A 
HETATM   16  C   UNL     1       3.129   9.804  24.876  0.00  0.00     0.032 A 
HETATM   17  C   UNL     1       2.108  10.748  24.720  0.00  0.00     0.031 A 
HETATM   18  C   UNL     1       0.776  10.368  24.498  0.00  0.00     0.030 A 
HETATM   19  C   UNL     1       0.533   8.995  24.332  0.00  0.00     0.031 A 
HETATM   20  C   UNL     1       1.552   8.039  24.439  0.00  0.00     0.032 A 
BRANCH  18  21
HETATM   21  N   UNL     1      -0.245  11.289  24.413  0.00  0.00    -0.377 N 
HETATM   22  C   UNL     1      -0.302  12.337  23.387  0.00  0.00     0.149 C 
HETATM   23  C   UNL     1      -1.748  12.406  22.874  0.00  0.00     0.187 C 
HETATM   24  O   UNL     1      -2.671  12.698  23.938  0.00  0.00    -0.388 OA
HETATM   25  C   UNL     1      -2.603  11.680  24.959  0.00  0.00     0.187 C 
HETATM   26  C   UNL     1      -1.180  11.534  25.526  0.00  0.00     0.149 C 
ENDBRANCH  18  21
ENDBRANCH  13  15
ENDBRANCH   8  11
BRANCH   9  27
HETATM   27  O   UNL     1       3.746   5.287  21.917  0.00  0.00    -0.360 OA
HETATM   28  H   UNL     1       2.870   5.266  21.470  0.00  0.00     0.217 HD
ENDBRANCH   9  27
BRANCH   1  29
HETATM   29  C   UNL     1       6.714  11.275  21.304  0.00  0.00     0.274 C 
HETATM   30  N   UNL     1       6.060  12.066  22.265  0.00  0.00    -0.351 N 
HETATM   31  C   UNL     1       4.610  12.177  22.292  0.00  0.00     0.152 C 
HETATM   32  O   UNL     1       7.893  11.497  21.017  0.00  0.00    -0.266 OA
BRANCH  30  33
HETATM   33  C   UNL     1       6.840  13.077  22.981  0.00  0.00     0.125 C 
BRANCH  33  34
HETATM   34  C   UNL     1       6.458  14.520  22.643  0.00  0.00     0.020 C 
BRANCH  34  35
HETATM   35  C   UNL     1       5.929  15.294  23.851  0.00  0.00    -0.003 C 
HETATM   36  C   UNL     1       4.595  15.954  23.542  0.00  0.00     0.005 C 
ENDBRANCH  34  35
ENDBRANCH  33  34
ENDBRANCH  30  33
ENDBRANCH   1  29
TORSDOF 8
ENDMDL
