MODEL 1
REMARK VINA RESULT:    -7.597      0.000      0.000
REMARK INTER + INTRA:          -9.465
REMARK INTER:                  -8.774
REMARK INTRA:                  -0.692
REMARK UNBOUND:                -0.536
REMARK  4 active torsions:
REMARK  status: ('A' for Active; 'I' for Inactive)
REMARK    1  A    between atoms: O_1  and  C_2 
REMARK    2  A    between atoms: C_5  and  C_6 
REMARK    3  A    between atoms: C_10  and  C_11 
REMARK    4  A    between atoms: C_17  and  O_18 
ROOT
HETATM    1  C   UNL     1       7.275  13.738  21.625  0.00  0.00     0.110 A 
HETATM    2  N   UNL     1       8.252  13.924  20.716  0.00  0.00    -0.127 NA
HETATM    3  O   UNL     1       8.766  15.180  20.941  0.00  0.00    -0.224 OA
HETATM    4  C   UNL     1       8.107  15.760  21.969  0.00  0.00     0.184 A 
HETATM    5  C   UNL     1       7.144  14.906  22.454  0.00  0.00     0.030 A 
ENDROOT
BRANCH   1   6
HETATM    6  C   UNL     1       6.495  12.491  21.618  0.00  0.00     0.029 A 
HETATM    7  C   UNL     1       5.203  12.455  22.170  0.00  0.00     0.019 A 
HETATM    8  C   UNL     1       4.373  11.342  21.992  0.00  0.00     0.037 A 
HETATM    9  C   UNL     1       4.852  10.238  21.298  0.00  0.00     0.068 A 
HETATM   10  C   UNL     1       6.161  10.208  20.830  0.00  0.00     0.074 A 
HETATM   11  C   UNL     1       6.980  11.323  21.002  0.00  0.00     0.081 A 
BRANCH   9  12
HETATM   12  O   UNL     1       4.054   9.161  21.051  0.00  0.00    -0.361 OA
HETATM   13  H   UNL     1       3.153   9.361  21.354  0.00  0.00     0.217 HD
ENDBRANCH   9  12
BRANCH  11  14
HETATM   14  O   UNL     1       8.258  11.204  20.524  0.00  0.00    -0.360 OA
HETATM   15  H   UNL     1       8.304  11.696  19.678  0.00  0.00     0.217 HD
ENDBRANCH  11  14
ENDBRANCH   1   6
BRANCH   5  16
HETATM   16  C   UNL     1       6.267  15.239  23.568  0.00  0.00    -0.022 A 
HETATM   17  C   UNL     1       5.065  15.931  23.360  0.00  0.00     0.012 A 
HETATM   18  C   UNL     1       4.144  16.092  24.398  0.00  0.00     0.001 A 
HETATM   19  C   UNL     1       4.442  15.618  25.673  0.00  0.00     0.000 A 
HETATM   20  C   UNL     1       5.667  15.001  25.914  0.00  0.00     0.001 A 
HETATM   21  C   UNL     1       6.573  14.810  24.868  0.00  0.00     0.012 A 
ENDBRANCH   5  16
TORSDOF 4
ENDMDL
MODEL 2
REMARK VINA RESULT:    -7.473      6.947      8.672
REMARK INTER + INTRA:          -9.320
REMARK INTER:                  -8.710
REMARK INTRA:                  -0.610
REMARK UNBOUND:                -0.536
REMARK  4 active torsions:
REMARK  status: ('A' for Active; 'I' for Inactive)
REMARK    1  A    between atoms: O_1  and  C_2 
REMARK    2  A    between atoms: C_5  and  C_6 
REMARK    3  A    between atoms: C_10  and  C_11 
REMARK    4  A    between atoms: C_17  and  O_18 
ROOT
HETATM    1  C   UNL     1      -1.816  11.492  24.458  0.00  0.00     0.110 A 
HETATM    2  N   UNL     1      -2.774  11.056  23.619  0.00  0.00    -0.127 NA
HETATM    3  O   UNL     1      -2.664  11.805  22.471  0.00  0.00    -0.224 OA
HETATM    4  C   UNL     1      -1.656  12.696  22.607  0.00  0.00     0.184 A 
HETATM    5  C   UNL     1      -1.071  12.558  23.845  0.00  0.00     0.030 A 
ENDROOT
BRANCH   1   6
HETATM    6  C   UNL     1      -1.698  10.910  25.803  0.00  0.00     0.029 A 
HETATM    7  C   UNL     1      -2.532  11.349  26.847  0.00  0.00     0.019 A 
HETATM    8  C   UNL     1      -2.575  10.670  28.070  0.00  0.00     0.037 A 
HETATM    9  C   UNL     1      -1.746   9.574  28.272  0.00  0.00     0.068 A 
HETATM   10  C   UNL     1      -0.839   9.182  27.295  0.00  0.00     0.074 A 
HETATM   11  C   UNL     1      -0.807   9.855  26.074  0.00  0.00     0.081 A 
BRANCH   9  12
HETATM   12  O   UNL     1      -1.803   8.851  29.426  0.00  0.00    -0.361 OA
HETATM   13  H   UNL     1      -2.383   9.309  30.056  0.00  0.00     0.217 HD
ENDBRANCH   9  12
BRANCH  11  14
HETATM   14  O   UNL     1       0.125   9.414  25.172  0.00  0.00    -0.360 OA
HETATM   15  H   UNL     1      -0.191   8.558  24.815  0.00  0.00     0.217 HD
ENDBRANCH  11  14
ENDBRANCH   1   6
BRANCH   5  16
HETATM   16  C   UNL     1       0.050  13.374  24.294  0.00  0.00    -0.022 A 
HETATM   17  C   UNL     1       0.226  13.676  25.652  0.00  0.00     0.012 A 
HETATM   18  C   UNL     1       1.391  14.304  26.099  0.00  0.00     0.001 A 
HETATM   19  C   UNL     1       2.368  14.692  25.185  0.00  0.00     0.000 A 
HETATM   20  C   UNL     1       2.170  14.472  23.825  0.00  0.00     0.001 A 
HETATM   21  C   UNL     1       1.020  13.815  23.381  0.00  0.00     0.012 A 
ENDBRANCH   5  16
TORSDOF 4
ENDMDL
MODEL 3
REMARK VINA RESULT:    -7.438      4.950      6.580
REMARK INTER + INTRA:          -9.279
REMARK INTER:                  -8.399
REMARK INTRA:                  -0.880
REMARK UNBOUND:                -0.536
REMARK  4 active torsions:
REMARK  status: ('A' for Active; 'I' for Inactive)
REMARK    1  A    between atoms: O_1  and  C_2 
REMARK    2  A    between atoms: C_5  and  C_6 
REMARK    3  A    between atoms: C_10  and  C_11 
REMARK    4  A    between atoms: C_17  and  O_18 
ROOT
HETATM    1  C   UNL     1       1.632  11.458  24.571  0.00  0.00     0.110 A 
HETATM    2  N   UNL     1       1.817  10.150  24.833  0.00  0.00    -0.127 NA
HETATM    3  O   UNL     1       3.127  10.008  25.226  0.00  0.00    -0.224 OA
HETATM    4  C   UNL     1       3.741  11.213  25.197  0.00  0.00     0.184 A 
HETATM    5  C   UNL     1       2.855  12.183  24.789  0.00  0.00     0.030 A 
ENDROOT
BRANCH   1   6
HETATM    6  C   UNL     1       0.328  11.930  24.082  0.00  0.00     0.029 A 
HETATM    7  C   UNL     1       0.239  12.681  22.897  0.00  0.00     0.019 A 
HETATM    8  C   UNL     1      -1.001  12.962  22.312  0.00  0.00     0.037 A 
HETATM    9  C   UNL     1      -2.164  12.532  22.939  0.00  0.00     0.068 A 
HETATM   10  C   UNL     1      -2.109  11.878  24.164  0.00  0.00     0.074 A 
HETATM   11  C   UNL     1      -0.870  11.591  24.737  0.00  0.00     0.081 A 
BRANCH   9  12
HETATM   12  O   UNL     1      -3.387  12.733  22.370  0.00  0.00    -0.361 OA
HETATM   13  H   UNL     1      -3.282  12.769  21.405  0.00  0.00     0.217 HD
ENDBRANCH   9  12
BRANCH  11  14
HETATM   14  O   UNL     1      -0.906  10.957  25.950  0.00  0.00    -0.360 OA
HETATM   15  H   UNL     1      -0.323  10.172  25.891  0.00  0.00     0.217 HD
ENDBRANCH  11  14
ENDBRANCH   1   6
BRANCH   5  16
HETATM   16  C   UNL     1       3.212  13.589  24.660  0.00  0.00    -0.022 A 
HETATM   17  C   UNL     1       2.926  14.505  25.683  0.00  0.00     0.012 A 
HETATM   18  C   UNL     1       3.425  15.808  25.635  0.00  0.00     0.001 A 
HETATM   19  C   UNL     1       4.167  16.231  24.534  0.00  0.00     0.000 A 
HETATM   20  C   UNL     1       4.391  15.357  23.474  0.00  0.00     0.001 A 
HETATM   21  C   UNL     1       3.919  14.043  23.536  0.00  0.00     0.012 A 
ENDBRANCH   5  16
TORSDOF 4
ENDMDL
MODEL 4
REMARK VINA RESULT:    -7.265      6.965      8.774
REMARK INTER + INTRA:          -9.075
REMARK INTER:                  -8.278
REMARK INTRA:                  -0.797
REMARK UNBOUND:                -0.536
REMARK  4 active torsions:
REMARK  status: ('A' for Active; 'I' for Inactive)
REMARK    1  A    between atoms: O_1  and  C_2 
REMARK    2  A    between atoms: C_5  and  C_6 
REMARK    3  A    between atoms: C_10  and  C_11 
REMARK    4  A    between atoms: C_17  and  O_18 
ROOT
HETATM    1  C   UNL     1      -1.905  11.383  24.126  0.00  0.00     0.110 A 
HETATM    2  N   UNL     1      -2.952  11.097  23.329  0.00  0.00    -0.127 NA
HETATM    3  O   UNL     1      -2.985  12.071  22.358  0.00  0.00    -0.224 OA
HETATM    4  C   UNL     1      -1.977  12.948  22.562  0.00  0.00     0.184 A 
HETATM    5  C   UNL     1      -1.248  12.577  23.669  0.00  0.00     0.030 A 
ENDROOT
BRANCH   1   6
HETATM    6  C   UNL     1      -1.624  10.539  25.298  0.00  0.00     0.029 A 
HETATM    7  C   UNL     1      -0.631   9.545  25.240  0.00  0.00     0.019 A 
HETATM    8  C   UNL     1      -0.212   8.877  26.396  0.00  0.00     0.037 A 
HETATM    9  C   UNL     1      -0.819   9.168  27.611  0.00  0.00     0.068 A 
HETATM   10  C   UNL     1      -1.873  10.072  27.678  0.00  0.00     0.074 A 
HETATM   11  C   UNL     1      -2.280  10.742  26.525  0.00  0.00     0.081 A 
BRANCH   9  12
HETATM   12  O   UNL     1      -0.397   8.583  28.768  0.00  0.00    -0.361 OA
HETATM   13  H   UNL     1       0.562   8.440  28.716  0.00  0.00     0.217 HD
ENDBRANCH   9  12
BRANCH  11  14
HETATM   14  O   UNL     1      -3.334  11.605  26.677  0.00  0.00    -0.360 OA
HETATM   15  H   UNL     1      -4.018  11.353  26.023  0.00  0.00     0.217 HD
ENDBRANCH  11  14
ENDBRANCH   1   6
BRANCH   5  16
HETATM   16  C   UNL     1      -0.089  13.320  24.148  0.00  0.00    -0.022 A 
HETATM   17  C   UNL     1       0.103  13.555  25.517  0.00  0.00     0.012 A 
HETATM   18  C   UNL     1       1.297  14.109  25.986  0.00  0.00     0.001 A 
HETATM   19  C   UNL     1       2.289  14.490  25.086  0.00  0.00     0.000 A 
HETATM   20  C   UNL     1       2.079  14.337  23.719  0.00  0.00     0.001 A 
HETATM   21  C   UNL     1       0.898  13.753  23.251  0.00  0.00     0.012 A 
ENDBRANCH   5  16
TORSDOF 4
ENDMDL
MODEL 5
REMARK VINA RESULT:    -7.215      2.293      3.333
REMARK INTER + INTRA:          -9.017
REMARK INTER:                  -8.526
REMARK INTRA:                  -0.491
REMARK UNBOUND:                -0.536
REMARK  4 active torsions:
REMARK  status: ('A' for Active; 'I' for Inactive)
REMARK    1  A    between atoms: O_1  and  C_2 
REMARK    2  A    between atoms: C_5  and  C_6 
REMARK    3  A    between atoms: C_10  and  C_11 
REMARK    4  A    between atoms: C_17  and  O_18 
ROOT
HETATM    1  C   UNL     1       8.298  13.540  23.915  0.00  0.00     0.110 A 
HETATM    2  N   UNL     1       9.371  13.000  24.525  0.00  0.00    -0.127 NA
HETATM    3  O   UNL     1       9.262  13.312  25.860  0.00  0.00    -0.224 OA
HETATM    4  C   UNL     1       8.143  14.041  26.066  0.00  0.00     0.184 A 
HETATM    5  C   UNL     1       7.478  14.228  24.876  0.00  0.00     0.030 A 
ENDROOT
BRANCH   1   6
HETATM    6  C   UNL     1       8.143  13.415  22.458  0.00  0.00     0.029 A 
HETATM    7  C   UNL     1       8.408  14.509  21.615  0.00  0.00     0.019 A 
HETATM    8  C   UNL     1       8.463  14.353  20.226  0.00  0.00     0.037 A 
HETATM    9  C   UNL     1       8.207  13.106  19.669  0.00  0.00     0.068 A 
HETATM   10  C   UNL     1       7.842  12.032  20.472  0.00  0.00     0.074 A 
HETATM   11  C   UNL     1       7.798  12.191  21.856  0.00  0.00     0.081 A 
BRANCH   9  12
HETATM   12  O   UNL     1       8.312  12.900  18.325  0.00  0.00    -0.361 OA
HETATM   13  H   UNL     1       9.210  12.590  18.123  0.00  0.00     0.217 HD
ENDBRANCH   9  12
BRANCH  11  14
HETATM   14  O   UNL     1       7.416  11.087  22.572  0.00  0.00    -0.360 OA
HETATM   15  H   UNL     1       7.833  10.305  22.155  0.00  0.00     0.217 HD
ENDBRANCH  11  14
ENDBRANCH   1   6
BRANCH   5  16
HETATM   16  C   UNL     1       6.230  14.972  24.765  0.00  0.00    -0.022 A 
HETATM   17  C   UNL     1       5.800  15.485  23.533  0.00  0.00     0.012 A 
HETATM   18  C   UNL     1       4.526  16.039  23.396  0.00  0.00     0.001 A 
HETATM   19  C   UNL     1       3.687  16.143  24.503  0.00  0.00     0.000 A 
HETATM   20  C   UNL     1       4.132  15.712  25.750  0.00  0.00     0.001 A 
HETATM   21  C   UNL     1       5.395  15.127  25.881  0.00  0.00     0.012 A 
ENDBRANCH   5  16
TORSDOF 4
ENDMDL
MODEL 6
REMARK VINA RESULT:    -7.167      2.173      4.982
REMARK INTER + INTRA:          -8.961
REMARK INTER:                  -8.230
REMARK INTRA:                  -0.731
REMARK UNBOUND:                -0.536
REMARK  4 active torsions:
REMARK  status: ('A' for Active; 'I' for Inactive)
REMARK    1  A    between atoms: O_1  and  C_2 
REMARK    2  A    between atoms: C_5  and  C_6 
REMARK    3  A    between atoms: C_10  and  C_11 
REMARK    4  A    between atoms: C_17  and  O_18 
ROOT
HETATM    1  C   UNL     1       7.104  14.922  22.263  0.00  0.00     0.110 A 
HETATM    2  N   UNL     1       7.880  15.856  21.682  0.00  0.00    -0.127 NA
HETATM    3  O   UNL     1       8.576  15.222  20.679  0.00  0.00    -0.224 OA
HETATM    4  C   UNL     1       8.238  13.913  20.651  0.00  0.00     0.184 A 
HETATM    5  C   UNL     1       7.308  13.647  21.630  0.00  0.00     0.030 A 
ENDROOT
BRANCH   1   6
HETATM    6  C   UNL     1       6.259  15.282  23.412  0.00  0.00     0.029 A 
HETATM    7  C   UNL     1       5.047  15.967  23.220  0.00  0.00     0.019 A 
HETATM    8  C   UNL     1       4.139  16.136  24.271  0.00  0.00     0.037 A 
HETATM    9  C   UNL     1       4.462  15.659  25.535  0.00  0.00     0.068 A 
HETATM   10  C   UNL     1       5.697  15.069  25.776  0.00  0.00     0.074 A 
HETATM   11  C   UNL     1       6.594  14.895  24.722  0.00  0.00     0.081 A 
BRANCH   9  12
HETATM   12  O   UNL     1       3.579  15.750  26.569  0.00  0.00    -0.361 OA
HETATM   13  H   UNL     1       2.792  16.234  26.269  0.00  0.00     0.217 HD
ENDBRANCH   9  12
BRANCH  11  14
HETATM   14  O   UNL     1       7.793  14.318  25.048  0.00  0.00    -0.360 OA
HETATM   15  H   UNL     1       7.668  13.346  25.030  0.00  0.00     0.217 HD
ENDBRANCH  11  14
ENDBRANCH   1   6
BRANCH   5  16
HETATM   16  C   UNL     1       6.740  12.324  21.853  0.00  0.00    -0.022 A 
HETATM   17  C   UNL     1       5.354  12.143  21.975  0.00  0.00     0.012 A 
HETATM   18  C   UNL     1       4.802  10.861  22.011  0.00  0.00     0.001 A 
HETATM   19  C   UNL     1       5.633   9.743  21.987  0.00  0.00     0.000 A 
HETATM   20  C   UNL     1       7.014   9.909  21.948  0.00  0.00     0.001 A 
HETATM   21  C   UNL     1       7.566  11.191  21.879  0.00  0.00     0.012 A 
ENDBRANCH   5  16
TORSDOF 4
ENDMDL
MODEL 7
REMARK VINA RESULT:    -7.041      6.546      8.582
REMARK INTER + INTRA:          -8.812
REMARK INTER:                  -7.900
REMARK INTRA:                  -0.912
REMARK UNBOUND:                -0.536
REMARK  4 active torsions:
REMARK  status: ('A' for Active; 'I' for Inactive)
REMARK    1  A    between atoms: O_1  and  C_2 
REMARK    2  A    between atoms: C_5  and  C_6 
REMARK    3  A    between atoms: C_10  and  C_11 
REMARK    4  A    between atoms: C_17  and  O_18 
ROOT
HETATM    1  C   UNL     1      -0.989  12.397  24.008  0.00  0.00     0.110 A 
HETATM    2  N   UNL     1      -1.595  12.669  22.837  0.00  0.00    -0.127 NA
HETATM    3  O   UNL     1      -2.684  11.832  22.752  0.00  0.00    -0.224 OA
HETATM    4  C   UNL     1      -2.739  11.049  23.853  0.00  0.00     0.184 A 
HETATM    5  C   UNL     1      -1.694  11.349  24.697  0.00  0.00     0.030 A 
ENDROOT
BRANCH   1   6
HETATM    6  C   UNL     1       0.245  13.106  24.377  0.00  0.00     0.029 A 
HETATM    7  C   UNL     1       0.361  13.733  25.630  0.00  0.00     0.019 A 
HETATM    8  C   UNL     1       1.590  14.233  26.076  0.00  0.00     0.037 A 
HETATM    9  C   UNL     1       2.701  14.149  25.247  0.00  0.00     0.068 A 
HETATM   10  C   UNL     1       2.592  13.627  23.964  0.00  0.00     0.074 A 
HETATM   11  C   UNL     1       1.367  13.122  23.528  0.00  0.00     0.081 A 
BRANCH   9  12
HETATM   12  O   UNL     1       3.928  14.569  25.669  0.00  0.00    -0.361 OA
HETATM   13  H   UNL     1       4.327  13.874  26.218  0.00  0.00     0.217 HD
ENDBRANCH   9  12
BRANCH  11  14
HETATM   14  O   UNL     1       1.342  12.640  22.246  0.00  0.00    -0.360 OA
HETATM   15  H   UNL     1       0.411  12.660  21.941  0.00  0.00     0.217 HD
ENDBRANCH  11  14
ENDBRANCH   1   6
BRANCH   5  16
HETATM   16  C   UNL     1      -1.479  10.680  25.973  0.00  0.00    -0.022 A 
HETATM   17  C   UNL     1      -2.091  11.145  27.146  0.00  0.00     0.012 A 
HETATM   18  C   UNL     1      -2.028  10.403  28.327  0.00  0.00     0.001 A 
HETATM   19  C   UNL     1      -1.301   9.216  28.367  0.00  0.00     0.000 A 
HETATM   20  C   UNL     1      -0.621   8.783  27.231  0.00  0.00     0.001 A 
HETATM   21  C   UNL     1      -0.711   9.508  26.040  0.00  0.00     0.012 A 
ENDBRANCH   5  16
TORSDOF 4
ENDMDL
MODEL 8
REMARK VINA RESULT:    -6.997      1.624      2.028
REMARK INTER + INTRA:          -8.761
REMARK INTER:                  -8.224
REMARK INTRA:                  -0.536
REMARK UNBOUND:                -0.536
REMARK  4 active torsions:
REMARK  status: ('A' for Active; 'I' for Inactive)
REMARK    1  A    between atoms: O_1  and  C_2 
REMARK    2  A    between atoms: C_5  and  C_6 
REMARK    3  A    between atoms: C_10  and  C_11 
REMARK    4  A    between atoms: C_17  and  O_18 
ROOT
HETATM    1  C   UNL     1       7.432  11.896  21.923  0.00  0.00     0.110 A 
HETATM    2  N   UNL     1       8.736  11.738  21.628  0.00  0.00    -0.127 NA
HETATM    3  O   UNL     1       9.338  12.957  21.839  0.00  0.00    -0.224 OA
HETATM    4  C   UNL     1       8.413  13.854  22.248  0.00  0.00     0.184 A 
HETATM    5  C   UNL     1       7.177  13.253  22.325  0.00  0.00     0.030 A 
ENDROOT
BRANCH   1   6
HETATM    6  C   UNL     1       6.501  10.769  21.757  0.00  0.00     0.029 A 
HETATM    7  C   UNL     1       5.881  10.185  22.875  0.00  0.00     0.019 A 
HETATM    8  C   UNL     1       4.847   9.255  22.723  0.00  0.00     0.037 A 
HETATM    9  C   UNL     1       4.458   8.870  21.446  0.00  0.00     0.068 A 
HETATM   10  C   UNL     1       5.123   9.355  20.326  0.00  0.00     0.074 A 
HETATM   11  C   UNL     1       6.147  10.288  20.483  0.00  0.00     0.081 A 
BRANCH   9  12
HETATM   12  O   UNL     1       3.414   8.014  21.255  0.00  0.00    -0.361 OA
HETATM   13  H   UNL     1       2.901   8.311  20.486  0.00  0.00     0.217 HD
ENDBRANCH   9  12
BRANCH  11  14
HETATM   14  O   UNL     1       6.759  10.704  19.330  0.00  0.00    -0.360 OA
HETATM   15  H   UNL     1       6.331  10.237  18.583  0.00  0.00     0.217 HD
ENDBRANCH  11  14
ENDBRANCH   1   6
BRANCH   5  16
HETATM   16  C   UNL     1       5.971  13.956  22.742  0.00  0.00    -0.022 A 
HETATM   17  C   UNL     1       4.749  13.281  22.873  0.00  0.00     0.012 A 
HETATM   18  C   UNL     1       3.641  13.914  23.441  0.00  0.00     0.001 A 
HETATM   19  C   UNL     1       3.723  15.249  23.830  0.00  0.00     0.000 A 
HETATM   20  C   UNL     1       4.907  15.955  23.631  0.00  0.00     0.001 A 
HETATM   21  C   UNL     1       6.025  15.313  23.093  0.00  0.00     0.012 A 
ENDBRANCH   5  16
TORSDOF 4
ENDMDL
MODEL 9
REMARK VINA RESULT:    -6.966      2.286      2.636
REMARK INTER + INTRA:          -8.725
REMARK INTER:                  -7.843
REMARK INTRA:                  -0.882
REMARK UNBOUND:                -0.536
REMARK  4 active torsions:
REMARK  status: ('A' for Active; 'I' for Inactive)
REMARK    1  A    between atoms: O_1  and  C_2 
REMARK    2  A    between atoms: C_5  and  C_6 
REMARK    3  A    between atoms: C_10  and  C_11 
REMARK    4  A    between atoms: C_17  and  O_18 
ROOT
HETATM    1  C   UNL     1       8.333  13.175  22.170  0.00  0.00     0.110 A 
HETATM    2  N   UNL     1       9.371  13.546  21.397  0.00  0.00    -0.127 NA
HETATM    3  O   UNL     1       9.076  14.801  20.916  0.00  0.00    -0.224 OA
HETATM    4  C   UNL     1       7.868  15.191  21.381  0.00  0.00     0.184 A 
HETATM    5  C   UNL     1       7.333  14.210  22.185  0.00  0.00     0.030 A 
ENDROOT
BRANCH   1   6
HETATM    6  C   UNL     1       8.328  11.848  22.804  0.00  0.00     0.029 A 
HETATM    7  C   UNL     1       8.342  11.726  24.205  0.00  0.00     0.019 A 
HETATM    8  C   UNL     1       8.133  10.488  24.823  0.00  0.00     0.037 A 
HETATM    9  C   UNL     1       7.955   9.355  24.039  0.00  0.00     0.068 A 
HETATM   10  C   UNL     1       8.038   9.431  22.654  0.00  0.00     0.074 A 
HETATM   11  C   UNL     1       8.237  10.669  22.043  0.00  0.00     0.081 A 
BRANCH   9  12
HETATM   12  O   UNL     1       7.687   8.143  24.603  0.00  0.00    -0.361 OA
HETATM   13  H   UNL     1       7.576   7.485  23.898  0.00  0.00     0.217 HD
ENDBRANCH   9  12
BRANCH  11  14
HETATM   14  O   UNL     1       8.321  10.653  20.676  0.00  0.00    -0.360 OA
HETATM   15  H   UNL     1       8.877  11.413  20.405  0.00  0.00     0.217 HD
ENDBRANCH  11  14
ENDBRANCH   1   6
BRANCH   5  16
HETATM   16  C   UNL     1       6.039  14.332  22.842  0.00  0.00    -0.022 A 
HETATM   17  C   UNL     1       5.631  15.545  23.416  0.00  0.00     0.012 A 
HETATM   18  C   UNL     1       4.326  15.709  23.886  0.00  0.00     0.001 A 
HETATM   19  C   UNL     1       3.430  14.644  23.844  0.00  0.00     0.000 A 
HETATM   20  C   UNL     1       3.846  13.410  23.351  0.00  0.00     0.001 A 
HETATM   21  C   UNL     1       5.141  13.254  22.851  0.00  0.00     0.012 A 
ENDBRANCH   5  16
TORSDOF 4
ENDMDL
