MODEL 1
REMARK VINA RESULT:    -8.549      0.000      0.000
REMARK INTER + INTRA:         -13.457
REMARK INTER:                 -11.132
REMARK INTRA:                  -2.325
REMARK UNBOUND:                -1.909
REMARK  7 active torsions:
REMARK  status: ('A' for Active; 'I' for Inactive)
REMARK    1  A    between atoms: C_6  and  C_7 
REMARK    2  A    between atoms: C_7  and  C_8 
REMARK    3  A    between atoms: C_8  and  C_9 
REMARK    4  A    between atoms: C_10  and  O_11 
REMARK    5  A    between atoms: C_13  and  O_14 
REMARK    6  A    between atoms: C_15  and  C_17 
REMARK    7  A    between atoms: N_21  and  C_22 
ROOT
HETATM    1  C   UNL     1       1.644  13.835  22.236  0.00  0.00    -0.024 C 
HETATM    2  C   UNL     1       1.982  13.561  20.913  0.00  0.00     0.074 C 
HETATM    3  C   UNL     1       1.248  12.653  20.154  0.00  0.00     0.074 C 
HETATM    4  C   UNL     1       0.112  12.056  20.705  0.00  0.00     0.081 C 
HETATM    5  C   UNL     1      -0.261  12.273  22.049  0.00  0.00     0.026 C 
HETATM    6  C   UNL     1       0.608  13.070  22.816  0.00  0.00     0.026 C 
ENDROOT
BRANCH   5   7
HETATM    7  C   UNL     1      -1.526  11.713  22.610  0.00  0.00     0.073 A 
HETATM    8  C   UNL     1      -1.631  10.589  23.425  0.00  0.00     0.053 A 
HETATM    9  C   UNL     1      -2.984  10.394  23.669  0.00  0.00     0.141 A 
HETATM   10  N   UNL     1      -3.730  11.327  23.104  0.00  0.00    -0.179 NA
HETATM   11  N   UNL     1      -2.863  12.175  22.482  0.00  0.00    -0.232 N 
BRANCH  11  12
HETATM   12  C   UNL     1      -3.420  13.306  21.795  0.00  0.00     0.080 A 
HETATM   13  C   UNL     1      -4.001  14.392  22.484  0.00  0.00     0.062 A 
HETATM   14 CL   UNL     1      -4.181  14.526  24.204  0.00  0.00    -0.082 Cl
HETATM   15  C   UNL     1      -4.410  15.533  21.773  0.00  0.00     0.026 A 
HETATM   16  C   UNL     1      -4.243  15.616  20.393  0.00  0.00     0.002 A 
HETATM   17  C   UNL     1      -3.738  14.523  19.701  0.00  0.00     0.002 A 
HETATM   18  C   UNL     1      -3.376  13.363  20.392  0.00  0.00     0.033 A 
ENDBRANCH  11  12
ENDBRANCH   5   7
BRANCH   4  19
HETATM   19  O   UNL     1      -0.646  11.256  19.887  0.00  0.00    -0.360 OA
HETATM   20  H   UNL     1      -0.211  10.393  19.785  0.00  0.00     0.217 HD
ENDBRANCH   4  19
BRANCH   1  21
HETATM   21  C   UNL     1       2.295  14.928  23.071  0.00  0.00     0.047 C 
BRANCH  21  22
HETATM   22  C   UNL     1       1.441  16.204  23.230  0.00  0.00     0.061 C 
BRANCH  22  23
HETATM   23  C   UNL     1       0.811  16.734  21.959  0.00  0.00     0.005 A 
HETATM   24  N   UNL     1       1.647  17.139  20.938  0.00  0.00    -0.370 N 
HETATM   25  C   UNL     1       1.188  17.502  19.699  0.00  0.00     0.084 A 
HETATM   26  H   UNL     1       2.649  17.014  21.054  0.00  0.00     0.165 HD
HETATM   27  C   UNL     1      -0.119  17.516  19.403  0.00  0.00    -0.006 A 
HETATM   28  C   UNL     1      -1.142  17.115  20.441  0.00  0.00     0.057 A 
HETATM   29  C   UNL     1      -0.526  16.719  21.765  0.00  0.00     0.002 A 
ENDBRANCH  22  23
ENDBRANCH  21  22
ENDBRANCH   1  21
BRANCH   2  30
HETATM   30  O   UNL     1       3.045  14.152  20.304  0.00  0.00    -0.360 OA
HETATM   31  H   UNL     1       2.673  14.755  19.637  0.00  0.00     0.217 HD
ENDBRANCH   2  30
TORSDOF 7
ENDMDL
MODEL 2
REMARK VINA RESULT:    -8.534      2.398      3.672
REMARK INTER + INTRA:         -13.437
REMARK INTER:                 -11.680
REMARK INTRA:                  -1.756
REMARK UNBOUND:                -1.909
REMARK  7 active torsions:
REMARK  status: ('A' for Active; 'I' for Inactive)
REMARK    1  A    between atoms: C_6  and  C_7 
REMARK    2  A    between atoms: C_7  and  C_8 
REMARK    3  A    between atoms: C_8  and  C_9 
REMARK    4  A    between atoms: C_10  and  O_11 
REMARK    5  A    between atoms: C_13  and  O_14 
REMARK    6  A    between atoms: C_15  and  C_17 
REMARK    7  A    between atoms: N_21  and  C_22 
ROOT
HETATM    1  C   UNL     1       1.107  12.614  20.260  0.00  0.00    -0.024 C 
HETATM    2  C   UNL     1       0.518  11.511  19.644  0.00  0.00     0.074 C 
HETATM    3  C   UNL     1      -0.677  10.975  20.114  0.00  0.00     0.074 C 
HETATM    4  C   UNL     1      -1.336  11.592  21.179  0.00  0.00     0.081 C 
HETATM    5  C   UNL     1      -0.773  12.693  21.861  0.00  0.00     0.026 C 
HETATM    6  C   UNL     1       0.511  13.090  21.449  0.00  0.00     0.026 C 
ENDROOT
BRANCH   5   7
HETATM    7  C   UNL     1      -1.519  13.411  22.935  0.00  0.00     0.073 A 
HETATM    8  C   UNL     1      -1.566  13.051  24.279  0.00  0.00     0.053 A 
HETATM    9  C   UNL     1      -2.410  13.954  24.910  0.00  0.00     0.141 A 
HETATM   10  N   UNL     1      -2.865  14.874  24.076  0.00  0.00    -0.179 NA
HETATM   11  N   UNL     1      -2.304  14.594  22.866  0.00  0.00    -0.232 N 
BRANCH  11  12
HETATM   12  C   UNL     1      -2.623  15.464  21.771  0.00  0.00     0.080 A 
HETATM   13  C   UNL     1      -1.696  16.396  21.257  0.00  0.00     0.062 A 
HETATM   14 CL   UNL     1      -0.095  16.677  21.862  0.00  0.00    -0.082 Cl
HETATM   15  C   UNL     1      -2.010  17.129  20.100  0.00  0.00     0.026 A 
HETATM   16  C   UNL     1      -3.222  16.945  19.441  0.00  0.00     0.002 A 
HETATM   17  C   UNL     1      -4.167  16.082  19.982  0.00  0.00     0.002 A 
HETATM   18  C   UNL     1      -3.886  15.387  21.161  0.00  0.00     0.033 A 
ENDBRANCH  11  12
ENDBRANCH   5   7
BRANCH   4  19
HETATM   19  O   UNL     1      -2.566  11.099  21.537  0.00  0.00    -0.360 OA
HETATM   20  H   UNL     1      -2.948  10.608  20.790  0.00  0.00     0.217 HD
ENDBRANCH   4  19
BRANCH   1  21
HETATM   21  C   UNL     1       2.318  13.350  19.707  0.00  0.00     0.047 C 
BRANCH  21  22
HETATM   22  C   UNL     1       2.591  14.717  20.370  0.00  0.00     0.061 C 
BRANCH  22  23
HETATM   23  C   UNL     1       3.853  14.802  21.205  0.00  0.00     0.005 A 
HETATM   24  N   UNL     1       4.966  15.392  20.642  0.00  0.00    -0.370 N 
HETATM   25  C   UNL     1       6.111  15.647  21.350  0.00  0.00     0.084 A 
HETATM   26  H   UNL     1       4.883  15.799  19.715  0.00  0.00     0.165 HD
HETATM   27  C   UNL     1       6.238  15.309  22.641  0.00  0.00    -0.006 A 
HETATM   28  C   UNL     1       5.097  14.634  23.369  0.00  0.00     0.057 A 
HETATM   29  C   UNL     1       3.879  14.417  22.499  0.00  0.00     0.002 A 
ENDBRANCH  22  23
ENDBRANCH  21  22
ENDBRANCH   1  21
BRANCH   2  30
HETATM   30  O   UNL     1       1.084  10.901  18.568  0.00  0.00    -0.360 OA
HETATM   31  H   UNL     1       0.624  11.251  17.786  0.00  0.00     0.217 HD
ENDBRANCH   2  30
TORSDOF 7
ENDMDL
MODEL 3
REMARK VINA RESULT:    -8.401      2.396      4.532
REMARK INTER + INTRA:         -13.256
REMARK INTER:                 -11.176
REMARK INTRA:                  -2.080
REMARK UNBOUND:                -1.909
REMARK  7 active torsions:
REMARK  status: ('A' for Active; 'I' for Inactive)
REMARK    1  A    between atoms: C_6  and  C_7 
REMARK    2  A    between atoms: C_7  and  C_8 
REMARK    3  A    between atoms: C_8  and  C_9 
REMARK    4  A    between atoms: C_10  and  O_11 
REMARK    5  A    between atoms: C_13  and  O_14 
REMARK    6  A    between atoms: C_15  and  C_17 
REMARK    7  A    between atoms: N_21  and  C_22 
ROOT
HETATM    1  C   UNL     1      -1.991  15.749  20.896  0.00  0.00    -0.024 C 
HETATM    2  C   UNL     1      -3.327  16.083  20.678  0.00  0.00     0.074 C 
HETATM    3  C   UNL     1      -4.357  15.261  21.125  0.00  0.00     0.074 C 
HETATM    4  C   UNL     1      -4.053  14.116  21.863  0.00  0.00     0.081 C 
HETATM    5  C   UNL     1      -2.719  13.712  22.089  0.00  0.00     0.026 C 
HETATM    6  C   UNL     1      -1.721  14.490  21.476  0.00  0.00     0.026 C 
ENDROOT
BRANCH   5   7
HETATM    7  C   UNL     1      -2.392  12.544  22.957  0.00  0.00     0.073 A 
HETATM    8  C   UNL     1      -3.129  11.366  23.055  0.00  0.00     0.053 A 
HETATM    9  C   UNL     1      -2.503  10.577  24.010  0.00  0.00     0.141 A 
HETATM   10  N   UNL     1      -1.413  11.149  24.490  0.00  0.00    -0.179 NA
HETATM   11  N   UNL     1      -1.293  12.338  23.834  0.00  0.00    -0.232 N 
BRANCH  11  12
HETATM   12  C   UNL     1      -0.165  13.163  24.159  0.00  0.00     0.080 A 
HETATM   13  C   UNL     1      -0.306  14.406  24.813  0.00  0.00     0.062 A 
HETATM   14 CL   UNL     1      -1.805  15.146  25.276  0.00  0.00    -0.082 Cl
HETATM   15  C   UNL     1       0.836  15.111  25.229  0.00  0.00     0.026 A 
HETATM   16  C   UNL     1       2.113  14.600  25.013  0.00  0.00     0.002 A 
HETATM   17  C   UNL     1       2.260  13.413  24.307  0.00  0.00     0.002 A 
HETATM   18  C   UNL     1       1.133  12.729  23.844  0.00  0.00     0.033 A 
ENDBRANCH  11  12
ENDBRANCH   5   7
BRANCH   4  19
HETATM   19  O   UNL     1      -5.101  13.396  22.381  0.00  0.00    -0.360 OA
HETATM   20  H   UNL     1      -5.254  13.664  23.302  0.00  0.00     0.217 HD
ENDBRANCH   4  19
BRANCH   1  21
HETATM   21  C   UNL     1      -0.823  16.672  20.583  0.00  0.00     0.047 C 
BRANCH  21  22
HETATM   22  C   UNL     1       0.216  16.794  21.718  0.00  0.00     0.061 C 
BRANCH  22  23
HETATM   23  C   UNL     1       1.538  16.096  21.476  0.00  0.00     0.005 A 
HETATM   24  N   UNL     1       2.672  16.635  22.048  0.00  0.00    -0.370 N 
HETATM   25  C   UNL     1       3.892  16.012  22.012  0.00  0.00     0.084 A 
HETATM   26  H   UNL     1       2.572  17.443  22.655  0.00  0.00     0.165 HD
HETATM   27  C   UNL     1       4.073  14.840  21.386  0.00  0.00    -0.006 A 
HETATM   28  C   UNL     1       2.913  14.155  20.699  0.00  0.00     0.057 A 
HETATM   29  C   UNL     1       1.613  14.920  20.815  0.00  0.00     0.002 A 
ENDBRANCH  22  23
ENDBRANCH  21  22
ENDBRANCH   1  21
BRANCH   2  30
HETATM   30  O   UNL     1      -3.687  17.213  20.013  0.00  0.00    -0.360 OA
HETATM   31  H   UNL     1      -4.426  16.962  19.433  0.00  0.00     0.217 HD
ENDBRANCH   2  30
TORSDOF 7
ENDMDL
MODEL 4
REMARK VINA RESULT:    -8.296      2.736      4.620
REMARK INTER + INTRA:         -13.115
REMARK INTER:                 -10.965
REMARK INTRA:                  -2.150
REMARK UNBOUND:                -1.909
REMARK  7 active torsions:
REMARK  status: ('A' for Active; 'I' for Inactive)
REMARK    1  A    between atoms: C_6  and  C_7 
REMARK    2  A    between atoms: C_7  and  C_8 
REMARK    3  A    between atoms: C_8  and  C_9 
REMARK    4  A    between atoms: C_10  and  O_11 
REMARK    5  A    between atoms: C_13  and  O_14 
REMARK    6  A    between atoms: C_15  and  C_17 
REMARK    7  A    between atoms: N_21  and  C_22 
ROOT
HETATM    1  C   UNL     1      -2.129  15.742  20.868  0.00  0.00    -0.024 C 
HETATM    2  C   UNL     1      -3.483  16.035  20.717  0.00  0.00     0.074 C 
HETATM    3  C   UNL     1      -4.464  15.165  21.182  0.00  0.00     0.074 C 
HETATM    4  C   UNL     1      -4.090  14.010  21.871  0.00  0.00     0.081 C 
HETATM    5  C   UNL     1      -2.734  13.648  22.028  0.00  0.00     0.026 C 
HETATM    6  C   UNL     1      -1.791  14.478  21.398  0.00  0.00     0.026 C 
ENDROOT
BRANCH   5   7
HETATM    7  C   UNL     1      -2.331  12.467  22.846  0.00  0.00     0.073 A 
HETATM    8  C   UNL     1      -2.686  11.143  22.601  0.00  0.00     0.053 A 
HETATM    9  C   UNL     1      -2.144  10.383  23.630  0.00  0.00     0.141 A 
HETATM   10  N   UNL     1      -1.446  11.120  24.477  0.00  0.00    -0.179 NA
HETATM   11  N   UNL     1      -1.507  12.396  24.001  0.00  0.00    -0.232 N 
BRANCH  11  12
HETATM   12  C   UNL     1      -0.806  13.410  24.737  0.00  0.00     0.080 A 
HETATM   13  C   UNL     1       0.512  13.797  24.414  0.00  0.00     0.062 A 
HETATM   14 CL   UNL     1       1.495  13.112  23.160  0.00  0.00    -0.082 Cl
HETATM   15  C   UNL     1       1.104  14.886  25.077  0.00  0.00     0.026 A 
HETATM   16  C   UNL     1       0.405  15.601  26.046  0.00  0.00     0.002 A 
HETATM   17  C   UNL     1      -0.866  15.181  26.418  0.00  0.00     0.002 A 
HETATM   18  C   UNL     1      -1.443  14.068  25.802  0.00  0.00     0.033 A 
ENDBRANCH  11  12
ENDBRANCH   5   7
BRANCH   4  19
HETATM   19  O   UNL     1      -5.089  13.239  22.410  0.00  0.00    -0.360 OA
HETATM   20  H   UNL     1      -4.799  12.312  22.447  0.00  0.00     0.217 HD
ENDBRANCH   4  19
BRANCH   1  21
HETATM   21  C   UNL     1      -1.007  16.715  20.534  0.00  0.00     0.047 C 
BRANCH  21  22
HETATM   22  C   UNL     1       0.029  16.906  21.663  0.00  0.00     0.061 C 
BRANCH  22  23
HETATM   23  C   UNL     1       1.394  16.299  21.410  0.00  0.00     0.005 A 
HETATM   24  N   UNL     1       2.405  16.577  22.308  0.00  0.00    -0.370 N 
HETATM   25  C   UNL     1       3.633  15.972  22.255  0.00  0.00     0.084 A 
HETATM   26  H   UNL     1       2.183  17.128  23.132  0.00  0.00     0.165 HD
HETATM   27  C   UNL     1       3.948  15.085  21.301  0.00  0.00    -0.006 A 
HETATM   28  C   UNL     1       2.935  14.711  20.243  0.00  0.00     0.057 A 
HETATM   29  C   UNL     1       1.610  15.423  20.405  0.00  0.00     0.002 A 
ENDBRANCH  22  23
ENDBRANCH  21  22
ENDBRANCH   1  21
BRANCH   2  30
HETATM   30  O   UNL     1      -3.909  17.171  20.103  0.00  0.00    -0.360 OA
HETATM   31  H   UNL     1      -3.842  17.002  19.146  0.00  0.00     0.217 HD
ENDBRANCH   2  30
TORSDOF 7
ENDMDL
MODEL 5
REMARK VINA RESULT:    -8.182      2.780      4.432
REMARK INTER + INTRA:         -12.960
REMARK INTER:                 -11.218
REMARK INTRA:                  -1.742
REMARK UNBOUND:                -1.909
REMARK  7 active torsions:
REMARK  status: ('A' for Active; 'I' for Inactive)
REMARK    1  A    between atoms: C_6  and  C_7 
REMARK    2  A    between atoms: C_7  and  C_8 
REMARK    3  A    between atoms: C_8  and  C_9 
REMARK    4  A    between atoms: C_10  and  O_11 
REMARK    5  A    between atoms: C_13  and  O_14 
REMARK    6  A    between atoms: C_15  and  C_17 
REMARK    7  A    between atoms: N_21  and  C_22 
ROOT
HETATM    1  C   UNL     1      -2.216  15.918  20.717  0.00  0.00    -0.024 C 
HETATM    2  C   UNL     1      -3.580  16.191  20.627  0.00  0.00     0.074 C 
HETATM    3  C   UNL     1      -4.528  15.286  21.094  0.00  0.00     0.074 C 
HETATM    4  C   UNL     1      -4.109  14.114  21.725  0.00  0.00     0.081 C 
HETATM    5  C   UNL     1      -2.742  13.771  21.818  0.00  0.00     0.026 C 
HETATM    6  C   UNL     1      -1.837  14.641  21.186  0.00  0.00     0.026 C 
ENDROOT
BRANCH   5   7
HETATM    7  C   UNL     1      -2.288  12.568  22.576  0.00  0.00     0.073 A 
HETATM    8  C   UNL     1      -2.239  11.265  22.087  0.00  0.00     0.053 A 
HETATM    9  C   UNL     1      -1.810  10.458  23.133  0.00  0.00     0.141 A 
HETATM   10  N   UNL     1      -1.551  11.156  24.224  0.00  0.00    -0.179 NA
HETATM   11  N   UNL     1      -1.793  12.459  23.903  0.00  0.00    -0.232 N 
BRANCH  11  12
HETATM   12  C   UNL     1      -1.569  13.445  24.921  0.00  0.00     0.080 A 
HETATM   13  C   UNL     1      -2.344  13.499  26.099  0.00  0.00     0.062 A 
HETATM   14 CL   UNL     1      -3.678  12.460  26.486  0.00  0.00    -0.082 Cl
HETATM   15  C   UNL     1      -1.999  14.395  27.124  0.00  0.00     0.026 A 
HETATM   16  C   UNL     1      -0.892  15.232  27.002  0.00  0.00     0.002 A 
HETATM   17  C   UNL     1      -0.168  15.234  25.817  0.00  0.00     0.002 A 
HETATM   18  C   UNL     1      -0.535  14.383  24.770  0.00  0.00     0.033 A 
ENDBRANCH  11  12
ENDBRANCH   5   7
BRANCH   4  19
HETATM   19  O   UNL     1      -5.074  13.304  22.271  0.00  0.00    -0.360 OA
HETATM   20  H   UNL     1      -5.645  12.961  21.564  0.00  0.00     0.217 HD
ENDBRANCH   4  19
BRANCH   1  21
HETATM   21  C   UNL     1      -1.124  16.923  20.380  0.00  0.00     0.047 C 
BRANCH  21  22
HETATM   22  C   UNL     1      -0.133  17.200  21.530  0.00  0.00     0.061 C 
BRANCH  22  23
HETATM   23  C   UNL     1       1.222  16.535  21.403  0.00  0.00     0.005 A 
HETATM   24  N   UNL     1       1.673  16.214  20.139  0.00  0.00    -0.370 N 
HETATM   25  C   UNL     1       2.935  15.741  19.897  0.00  0.00     0.084 A 
HETATM   26  H   UNL     1       1.108  16.486  19.340  0.00  0.00     0.165 HD
HETATM   27  C   UNL     1       3.816  15.528  20.885  0.00  0.00    -0.006 A 
HETATM   28  C   UNL     1       3.437  15.819  22.320  0.00  0.00     0.057 A 
HETATM   29  C   UNL     1       2.030  16.352  22.471  0.00  0.00     0.002 A 
ENDBRANCH  22  23
ENDBRANCH  21  22
ENDBRANCH   1  21
BRANCH   2  30
HETATM   30  O   UNL     1      -4.048  17.341  20.072  0.00  0.00    -0.360 OA
HETATM   31  H   UNL     1      -5.009  17.346  20.231  0.00  0.00     0.217 HD
ENDBRANCH   2  30
TORSDOF 7
ENDMDL
MODEL 6
REMARK VINA RESULT:    -8.155      3.156      3.821
REMARK INTER + INTRA:         -12.925
REMARK INTER:                 -11.328
REMARK INTRA:                  -1.596
REMARK UNBOUND:                -1.909
REMARK  7 active torsions:
REMARK  status: ('A' for Active; 'I' for Inactive)
REMARK    1  A    between atoms: C_6  and  C_7 
REMARK    2  A    between atoms: C_7  and  C_8 
REMARK    3  A    between atoms: C_8  and  C_9 
REMARK    4  A    between atoms: C_10  and  O_11 
REMARK    5  A    between atoms: C_13  and  O_14 
REMARK    6  A    between atoms: C_15  and  C_17 
REMARK    7  A    between atoms: N_21  and  C_22 
ROOT
HETATM    1  C   UNL     1      -0.124  14.881  25.256  0.00  0.00    -0.024 C 
HETATM    2  C   UNL     1      -0.136  15.268  26.595  0.00  0.00     0.074 C 
HETATM    3  C   UNL     1      -1.169  14.886  27.446  0.00  0.00     0.074 C 
HETATM    4  C   UNL     1      -2.177  14.045  26.972  0.00  0.00     0.081 C 
HETATM    5  C   UNL     1      -2.233  13.646  25.618  0.00  0.00     0.026 C 
HETATM    6  C   UNL     1      -1.256  14.192  24.767  0.00  0.00     0.026 C 
ENDROOT
BRANCH   5   7
HETATM    7  C   UNL     1      -3.253  12.671  25.132  0.00  0.00     0.073 A 
HETATM    8  C   UNL     1      -3.798  11.623  25.869  0.00  0.00     0.053 A 
HETATM    9  C   UNL     1      -4.661  10.940  25.022  0.00  0.00     0.141 A 
HETATM   10  N   UNL     1      -4.728  11.500  23.827  0.00  0.00    -0.179 NA
HETATM   11  N   UNL     1      -3.909  12.588  23.875  0.00  0.00    -0.232 N 
BRANCH  11  12
HETATM   12  C   UNL     1      -3.811  13.396  22.693  0.00  0.00     0.080 A 
HETATM   13  C   UNL     1      -3.027  13.014  21.584  0.00  0.00     0.062 A 
HETATM   14 CL   UNL     1      -2.046  11.588  21.476  0.00  0.00    -0.082 Cl
HETATM   15  C   UNL     1      -3.071  13.772  20.402  0.00  0.00     0.026 A 
HETATM   16  C   UNL     1      -3.887  14.896  20.300  0.00  0.00     0.002 A 
HETATM   17  C   UNL     1      -4.606  15.317  21.411  0.00  0.00     0.002 A 
HETATM   18  C   UNL     1      -4.529  14.601  22.608  0.00  0.00     0.033 A 
ENDBRANCH  11  12
ENDBRANCH   5   7
BRANCH   4  19
HETATM   19  O   UNL     1      -3.113  13.603  27.873  0.00  0.00    -0.360 OA
HETATM   20  H   UNL     1      -2.720  12.914  28.435  0.00  0.00     0.217 HD
ENDBRANCH   4  19
BRANCH   1  21
HETATM   21  C   UNL     1       1.046  15.120  24.312  0.00  0.00     0.047 C 
BRANCH  21  22
HETATM   22  C   UNL     1       0.813  14.626  22.869  0.00  0.00     0.061 C 
BRANCH  22  23
HETATM   23  C   UNL     1       0.554  15.706  21.839  0.00  0.00     0.005 A 
HETATM   24  N   UNL     1       1.606  16.111  21.043  0.00  0.00    -0.370 N 
HETATM   25  C   UNL     1       1.453  16.975  19.991  0.00  0.00     0.084 A 
HETATM   26  H   UNL     1       2.497  15.632  21.137  0.00  0.00     0.165 HD
HETATM   27  C   UNL     1       0.266  17.513  19.680  0.00  0.00    -0.006 A 
HETATM   28  C   UNL     1      -0.964  17.167  20.489  0.00  0.00     0.057 A 
HETATM   29  C   UNL     1      -0.685  16.194  21.613  0.00  0.00     0.002 A 
ENDBRANCH  22  23
ENDBRANCH  21  22
ENDBRANCH   1  21
BRANCH   2  30
HETATM   30  O   UNL     1       0.846  16.042  27.129  0.00  0.00    -0.360 OA
HETATM   31  H   UNL     1       1.680  15.733  26.732  0.00  0.00     0.217 HD
ENDBRANCH   2  30
TORSDOF 7
ENDMDL
MODEL 7
REMARK VINA RESULT:    -7.880      2.548      4.698
REMARK INTER + INTRA:         -12.553
REMARK INTER:                 -11.032
REMARK INTRA:                  -1.521
REMARK UNBOUND:                -1.909
REMARK  7 active torsions:
REMARK  status: ('A' for Active; 'I' for Inactive)
REMARK    1  A    between atoms: C_6  and  C_7 
REMARK    2  A    between atoms: C_7  and  C_8 
REMARK    3  A    between atoms: C_8  and  C_9 
REMARK    4  A    between atoms: C_10  and  O_11 
REMARK    5  A    between atoms: C_13  and  O_14 
REMARK    6  A    between atoms: C_15  and  C_17 
REMARK    7  A    between atoms: N_21  and  C_22 
ROOT
HETATM    1  C   UNL     1       0.531  16.600  21.166  0.00  0.00    -0.024 C 
HETATM    2  C   UNL     1       0.595  16.754  22.550  0.00  0.00     0.074 C 
HETATM    3  C   UNL     1      -0.445  16.329  23.371  0.00  0.00     0.074 C 
HETATM    4  C   UNL     1      -1.543  15.675  22.809  0.00  0.00     0.081 C 
HETATM    5  C   UNL     1      -1.676  15.518  21.412  0.00  0.00     0.026 C 
HETATM    6  C   UNL     1      -0.676  16.111  20.621  0.00  0.00     0.026 C 
ENDROOT
BRANCH   5   7
HETATM    7  C   UNL     1      -2.799  14.736  20.817  0.00  0.00     0.073 A 
HETATM    8  C   UNL     1      -3.698  15.197  19.859  0.00  0.00     0.053 A 
HETATM    9  C   UNL     1      -4.605  14.171  19.629  0.00  0.00     0.141 A 
HETATM   10  N   UNL     1      -4.322  13.092  20.339  0.00  0.00    -0.179 NA
HETATM   11  N   UNL     1      -3.196  13.392  21.046  0.00  0.00    -0.232 N 
BRANCH  11  12
HETATM   12  C   UNL     1      -2.658  12.370  21.898  0.00  0.00     0.080 A 
HETATM   13  C   UNL     1      -1.357  11.852  21.721  0.00  0.00     0.062 A 
HETATM   14 CL   UNL     1      -0.246  12.303  20.467  0.00  0.00    -0.082 Cl
HETATM   15  C   UNL     1      -0.828  10.952  22.661  0.00  0.00     0.026 A 
HETATM   16  C   UNL     1      -1.565  10.566  23.777  0.00  0.00     0.002 A 
HETATM   17  C   UNL     1      -2.871  11.016  23.920  0.00  0.00     0.002 A 
HETATM   18  C   UNL     1      -3.426  11.871  22.963  0.00  0.00     0.033 A 
ENDBRANCH  11  12
ENDBRANCH   5   7
BRANCH   4  19
HETATM   19  O   UNL     1      -2.491  15.173  23.665  0.00  0.00    -0.360 OA
HETATM   20  H   UNL     1      -3.277  14.908  23.159  0.00  0.00     0.217 HD
ENDBRANCH   4  19
BRANCH   1  21
HETATM   21  C   UNL     1       1.690  16.890  20.224  0.00  0.00     0.047 C 
BRANCH  21  22
HETATM   22  C   UNL     1       2.517  15.648  19.828  0.00  0.00     0.061 C 
BRANCH  22  23
HETATM   23  C   UNL     1       3.621  15.261  20.789  0.00  0.00     0.005 A 
HETATM   24  N   UNL     1       4.909  15.657  20.493  0.00  0.00    -0.370 N 
HETATM   25  C   UNL     1       5.958  15.485  21.358  0.00  0.00     0.084 A 
HETATM   26  H   UNL     1       5.061  16.241  19.676  0.00  0.00     0.165 HD
HETATM   27  C   UNL     1       5.807  14.885  22.547  0.00  0.00    -0.006 A 
HETATM   28  C   UNL     1       4.448  14.384  22.982  0.00  0.00     0.057 A 
HETATM   29  C   UNL     1       3.362  14.641  21.962  0.00  0.00     0.002 A 
ENDBRANCH  22  23
ENDBRANCH  21  22
ENDBRANCH   1  21
BRANCH   2  30
HETATM   30  O   UNL     1       1.663  17.334  23.160  0.00  0.00    -0.360 OA
HETATM   31  H   UNL     1       1.381  18.234  23.401  0.00  0.00     0.217 HD
ENDBRANCH   2  30
TORSDOF 7
ENDMDL
MODEL 8
REMARK VINA RESULT:    -7.814      2.956      3.674
REMARK INTER + INTRA:         -12.464
REMARK INTER:                 -10.555
REMARK INTRA:                  -1.909
REMARK UNBOUND:                -1.909
REMARK  7 active torsions:
REMARK  status: ('A' for Active; 'I' for Inactive)
REMARK    1  A    between atoms: C_6  and  C_7 
REMARK    2  A    between atoms: C_7  and  C_8 
REMARK    3  A    between atoms: C_8  and  C_9 
REMARK    4  A    between atoms: C_10  and  O_11 
REMARK    5  A    between atoms: C_13  and  O_14 
REMARK    6  A    between atoms: C_15  and  C_17 
REMARK    7  A    between atoms: N_21  and  C_22 
ROOT
HETATM    1  C   UNL     1       0.850  14.786  25.312  0.00  0.00    -0.024 C 
HETATM    2  C   UNL     1       0.275  15.290  26.477  0.00  0.00     0.074 C 
HETATM    3  C   UNL     1      -1.055  15.031  26.795  0.00  0.00     0.074 C 
HETATM    4  C   UNL     1      -1.810  14.195  25.970  0.00  0.00     0.081 C 
HETATM    5  C   UNL     1      -1.289  13.680  24.762  0.00  0.00     0.026 C 
HETATM    6  C   UNL     1       0.003  14.106  24.409  0.00  0.00     0.026 C 
ENDROOT
BRANCH   5   7
HETATM    7  C   UNL     1      -2.060  12.711  23.930  0.00  0.00     0.073 A 
HETATM    8  C   UNL     1      -2.186  11.345  24.170  0.00  0.00     0.053 A 
HETATM    9  C   UNL     1      -2.939  10.819  23.129  0.00  0.00     0.141 A 
HETATM   10  N   UNL     1      -3.326  11.753  22.277  0.00  0.00    -0.179 NA
HETATM   11  N   UNL     1      -2.839  12.930  22.762  0.00  0.00    -0.232 N 
BRANCH  11  12
HETATM   12  C   UNL     1      -3.136  14.124  22.023  0.00  0.00     0.080 A 
HETATM   13  C   UNL     1      -2.164  14.786  21.242  0.00  0.00     0.062 A 
HETATM   14 CL   UNL     1      -0.500  14.321  21.083  0.00  0.00    -0.082 Cl
HETATM   15  C   UNL     1      -2.537  15.871  20.432  0.00  0.00     0.026 A 
HETATM   16  C   UNL     1      -3.860  16.304  20.379  0.00  0.00     0.002 A 
HETATM   17  C   UNL     1      -4.806  15.704  21.199  0.00  0.00     0.002 A 
HETATM   18  C   UNL     1      -4.435  14.657  22.047  0.00  0.00     0.033 A 
ENDBRANCH  11  12
ENDBRANCH   5   7
BRANCH   4  19
HETATM   19  O   UNL     1      -3.080  13.875  26.380  0.00  0.00    -0.360 OA
HETATM   20  H   UNL     1      -3.056  13.580  27.305  0.00  0.00     0.217 HD
ENDBRANCH   4  19
BRANCH   1  21
HETATM   21  C   UNL     1       2.332  14.890  24.981  0.00  0.00     0.047 C 
BRANCH  21  22
HETATM   22  C   UNL     1       2.733  14.246  23.637  0.00  0.00     0.061 C 
BRANCH  22  23
HETATM   23  C   UNL     1       2.717  15.169  22.436  0.00  0.00     0.005 A 
HETATM   24  N   UNL     1       3.034  14.637  21.203  0.00  0.00    -0.370 N 
HETATM   25  C   UNL     1       2.915  15.343  20.035  0.00  0.00     0.084 A 
HETATM   26  H   UNL     1       3.210  13.638  21.137  0.00  0.00     0.165 HD
HETATM   27  C   UNL     1       2.508  16.619  20.016  0.00  0.00    -0.006 A 
HETATM   28  C   UNL     1       2.151  17.326  21.303  0.00  0.00     0.057 A 
HETATM   29  C   UNL     1       2.301  16.451  22.527  0.00  0.00     0.002 A 
ENDBRANCH  22  23
ENDBRANCH  21  22
ENDBRANCH   1  21
BRANCH   2  30
HETATM   30  O   UNL     1       0.976  16.065  27.348  0.00  0.00    -0.360 OA
HETATM   31  H   UNL     1       1.745  15.535  27.622  0.00  0.00     0.217 HD
ENDBRANCH   2  30
TORSDOF 7
ENDMDL
MODEL 9
REMARK VINA RESULT:    -7.767      2.570      6.340
REMARK INTER + INTRA:         -12.400
REMARK INTER:                 -10.361
REMARK INTRA:                  -2.039
REMARK UNBOUND:                -1.909
REMARK  7 active torsions:
REMARK  status: ('A' for Active; 'I' for Inactive)
REMARK    1  A    between atoms: C_6  and  C_7 
REMARK    2  A    between atoms: C_7  and  C_8 
REMARK    3  A    between atoms: C_8  and  C_9 
REMARK    4  A    between atoms: C_10  and  O_11 
REMARK    5  A    between atoms: C_13  and  O_14 
REMARK    6  A    between atoms: C_15  and  C_17 
REMARK    7  A    between atoms: N_21  and  C_22 
ROOT
HETATM    1  C   UNL     1      -2.729  15.639  21.499  0.00  0.00    -0.024 C 
HETATM    2  C   UNL     1      -2.670  16.552  20.448  0.00  0.00     0.074 C 
HETATM    3  C   UNL     1      -1.456  17.087  20.025  0.00  0.00     0.074 C 
HETATM    4  C   UNL     1      -0.269  16.654  20.618  0.00  0.00     0.081 C 
HETATM    5  C   UNL     1      -0.270  15.754  21.707  0.00  0.00     0.026 C 
HETATM    6  C   UNL     1      -1.531  15.372  22.197  0.00  0.00     0.026 C 
ENDROOT
BRANCH   5   7
HETATM    7  C   UNL     1       1.000  15.217  22.278  0.00  0.00     0.073 A 
HETATM    8  C   UNL     1       2.233  15.864  22.281  0.00  0.00     0.053 A 
HETATM    9  C   UNL     1       3.145  14.992  22.860  0.00  0.00     0.141 A 
HETATM   10  N   UNL     1       2.574  13.866  23.252  0.00  0.00    -0.179 NA
HETATM   11  N   UNL     1       1.251  13.990  22.948  0.00  0.00    -0.232 N 
BRANCH  11  12
HETATM   12  C   UNL     1       0.387  12.897  23.291  0.00  0.00     0.080 A 
HETATM   13  C   UNL     1      -0.142  12.022  22.318  0.00  0.00     0.062 A 
HETATM   14 CL   UNL     1       0.108  12.138  20.605  0.00  0.00    -0.082 Cl
HETATM   15  C   UNL     1      -0.871  10.889  22.717  0.00  0.00     0.026 A 
HETATM   16  C   UNL     1      -1.076  10.607  24.064  0.00  0.00     0.002 A 
HETATM   17  C   UNL     1      -0.619  11.501  25.024  0.00  0.00     0.002 A 
HETATM   18  C   UNL     1       0.062  12.657  24.637  0.00  0.00     0.033 A 
ENDBRANCH  11  12
ENDBRANCH   5   7
BRANCH   4  19
HETATM   19  O   UNL     1       0.911  17.122  20.096  0.00  0.00    -0.360 OA
HETATM   20  H   UNL     1       0.903  17.013  19.130  0.00  0.00     0.217 HD
ENDBRANCH   4  19
BRANCH   1  21
HETATM   21  C   UNL     1      -3.991  14.892  21.906  0.00  0.00     0.047 C 
BRANCH  21  22
HETATM   22  C   UNL     1      -3.809  13.367  22.056  0.00  0.00     0.061 C 
BRANCH  22  23
HETATM   23  C   UNL     1      -4.083  12.805  23.436  0.00  0.00     0.005 A 
HETATM   24  N   UNL     1      -4.696  11.573  23.526  0.00  0.00    -0.370 N 
HETATM   25  C   UNL     1      -4.863  10.910  24.714  0.00  0.00     0.084 A 
HETATM   26  H   UNL     1      -4.889  11.063  22.669  0.00  0.00     0.165 HD
HETATM   27  C   UNL     1      -4.466  11.434  25.882  0.00  0.00    -0.006 A 
HETATM   28  C   UNL     1      -3.799  12.791  25.922  0.00  0.00     0.057 A 
HETATM   29  C   UNL     1      -3.650  13.424  24.556  0.00  0.00     0.002 A 
ENDBRANCH  22  23
ENDBRANCH  21  22
ENDBRANCH   1  21
BRANCH   2  30
HETATM   30  O   UNL     1      -3.787  16.971  19.794  0.00  0.00    -0.360 OA
HETATM   31  H   UNL     1      -4.336  17.421  20.460  0.00  0.00     0.217 HD
ENDBRANCH   2  30
TORSDOF 7
ENDMDL
