REMARK  7 active torsions:
REMARK  status: ('A' for Active; 'I' for Inactive)
REMARK    1  A    between atoms: C_6  and  C_7 
REMARK    2  A    between atoms: C_7  and  C_8 
REMARK    3  A    between atoms: C_8  and  C_9 
REMARK    4  A    between atoms: C_10  and  O_11 
REMARK    5  A    between atoms: C_13  and  O_14 
REMARK    6  A    between atoms: C_15  and  C_17 
REMARK    7  A    between atoms: N_21  and  C_22 
ROOT
HETATM    1  C   UNL     1       4.314   2.960  -0.118  0.00  0.00    -0.024 C 
HETATM    2  C   UNL     1       3.977   4.312  -0.101  0.00  0.00     0.074 C 
HETATM    3  C   UNL     1       4.865   5.282  -0.557  0.00  0.00     0.074 C 
HETATM    4  C   UNL     1       6.089   4.892  -1.104  0.00  0.00     0.081 C 
HETATM    5  C   UNL     1       6.496   3.540  -1.120  0.00  0.00     0.026 C 
HETATM    6  C   UNL     1       5.631   2.622  -0.499  0.00  0.00     0.026 C 
ENDROOT
BRANCH   5   7
HETATM    7  C   UNL     1       7.759   3.112  -1.790  0.00  0.00     0.073 A 
HETATM    8  C   UNL     1       8.925   3.866  -1.894  0.00  0.00     0.053 A 
HETATM    9  C   UNL     1       9.827   3.114  -2.635  0.00  0.00     0.141 A 
HETATM   10  N   UNL     1       9.332   1.935  -2.970  0.00  0.00    -0.179 NA
HETATM   11  N   UNL     1       8.081   1.886  -2.431  0.00  0.00    -0.232 N 
BRANCH  11  12
HETATM   12  C   UNL     1       7.319   0.687  -2.634  0.00  0.00     0.080 A 
HETATM   13  C   UNL     1       7.921  -0.589  -2.671  0.00  0.00     0.062 A 
HETATM   14 CL   UNL     1       9.619  -0.916  -2.533  0.00  0.00    -0.082 Cl
HETATM   15  C   UNL     1       7.118  -1.740  -2.737  0.00  0.00     0.026 A 
HETATM   16  C   UNL     1       5.729  -1.645  -2.758  0.00  0.00     0.002 A 
HETATM   17  C   UNL     1       5.133  -0.391  -2.794  0.00  0.00     0.002 A 
HETATM   18  C   UNL     1       5.924   0.761  -2.781  0.00  0.00     0.033 A 
ENDBRANCH  11  12
ENDBRANCH   5   7
BRANCH   4  19
HETATM   19  O   UNL     1       6.885   5.871  -1.644  0.00  0.00    -0.360 OA
HETATM   20  H   UNL     1       6.493   6.742  -1.465  0.00  0.00     0.217 HD
ENDBRANCH   4  19
BRANCH   1  21
HETATM   21  C   UNL     1       3.340   1.837   0.209  0.00  0.00     0.047 C 
BRANCH  21  22
HETATM   22  C   UNL     1       1.923   2.032  -0.371  0.00  0.00     0.061 C 
BRANCH  22  23
HETATM   23  C   UNL     1       1.026   0.812  -0.336  0.00  0.00     0.005 A 
HETATM   24  N   UNL     1       0.715   0.269   0.894  0.00  0.00    -0.370 N 
HETATM   25  C   UNL     1      -0.195  -0.743   1.052  0.00  0.00     0.084 A 
HETATM   26  H   UNL     1       1.050   0.739   1.730  0.00  0.00     0.165 HD
HETATM   27  C   UNL     1      -0.827  -1.299   0.009  0.00  0.00    -0.006 A 
HETATM   28  C   UNL     1      -0.558  -0.809  -1.396  0.00  0.00     0.057 A 
HETATM   29  C   UNL     1       0.448   0.319  -1.453  0.00  0.00     0.002 A 
ENDBRANCH  22  23
ENDBRANCH  21  22
ENDBRANCH   1  21
BRANCH   2  30
HETATM   30  O   UNL     1       2.778   4.749   0.369  0.00  0.00    -0.360 OA
HETATM   31  H   UNL     1       2.170   4.739  -0.391  0.00  0.00     0.217 HD
ENDBRANCH   2  30
TORSDOF 7
