MODEL 1
REMARK VINA RESULT:   -10.029      0.000      0.000
REMARK INTER + INTRA:         -13.362
REMARK INTER:                 -11.912
REMARK INTRA:                  -1.450
REMARK UNBOUND:                -1.575
REMARK  3 active torsions:
REMARK  status: ('A' for Active; 'I' for Inactive)
REMARK    1  A    between atoms: C_8  and  C_11 
REMARK    2  A    between atoms: C_17  and  N_24 
REMARK       I    between atoms: N_24  and  C_25 
REMARK    3  A    between atoms: C_25  and  C_27 
ROOT
HETATM    1  C   UNL     1       9.099  10.416  24.087  0.00  0.00    -0.013 A 
HETATM    2  C   UNL     1       9.616   9.091  24.055  0.00  0.00     0.013 A 
HETATM    3  C   UNL     1       8.882   7.985  23.591  0.00  0.00     0.002 A 
HETATM    4  C   UNL     1       7.604   8.163  23.090  0.00  0.00     0.010 A 
HETATM    5  C   UNL     1       7.758  10.567  23.665  0.00  0.00    -0.005 A 
HETATM    6  C   UNL     1       7.069   9.442  23.118  0.00  0.00    -0.019 A 
HETATM    7  C   UNL     1       5.721   9.834  22.537  0.00  0.00     0.153 C 
HETATM    8  C   UNL     1       5.690  11.319  22.814  0.00  0.00    -0.020 C 
HETATM    9  C   UNL     1       6.827  11.713  23.555  0.00  0.00    -0.016 C 
HETATM   10  C   UNL     1       4.684  12.212  22.454  0.00  0.00     0.010 C 
HETATM   11  C   UNL     1       4.807  13.541  22.846  0.00  0.00     0.001 C 
HETATM   12  C   UNL     1       5.878  13.931  23.655  0.00  0.00     0.001 C 
HETATM   13  C   UNL     1       6.857  13.007  24.051  0.00  0.00     0.013 C 
ENDROOT
BRANCH   7  14
HETATM   14  N   UNL     1       5.660   9.547  21.123  0.00  0.00    -0.344 N 
HETATM   15  C   UNL     1       5.050   8.412  20.642  0.00  0.00     0.256 C 
HETATM   16  O   UNL     1       4.581   7.549  21.374  0.00  0.00    -0.268 OA
HETATM   17  H   UNL     1       5.778  10.336  20.492  0.00  0.00     0.163 HD
BRANCH  15  18
HETATM   18  C   UNL     1       4.986   8.283  19.168  0.00  0.00     0.083 A 
HETATM   19  C   UNL     1       5.283   7.100  18.474  0.00  0.00     0.046 A 
HETATM   20 BR   UNL     1       5.865   5.490  19.295  0.00  0.00    -0.048 Br
HETATM   21  C   UNL     1       5.201   7.096  17.079  0.00  0.00     0.139 A 
HETATM   22  N   UNL     1       4.843   8.143  16.291  0.00  0.00    -0.240 NA
HETATM   23  C   UNL     1       4.566   9.240  17.012  0.00  0.00     0.158 A 
HETATM   24  C   UNL     1       4.613   9.396  18.390  0.00  0.00     0.121 A 
HETATM   25  N   UNL     1       4.170  10.449  16.521  0.00  0.00    -0.334 N 
HETATM   26  N   UNL     1       4.270  10.692  18.729  0.00  0.00    -0.239 NA
HETATM   27  C   UNL     1       3.993  11.287  17.588  0.00  0.00     0.209 A 
HETATM   28  H   UNL     1       4.031  10.664  15.546  0.00  0.00     0.168 HD
ENDBRANCH  15  18
ENDBRANCH   7  14
BRANCH   1  29
HETATM   29  C   UNL     1      10.011  11.519  24.487  0.00  0.00    -0.007 C 
HETATM   30  C   UNL     1      10.819  12.185  23.567  0.00  0.00     0.027 C 
HETATM   31  C   UNL     1      11.513  13.351  23.903  0.00  0.00    -0.007 A 
HETATM   32  C   UNL     1      12.061  14.175  22.906  0.00  0.00     0.014 A 
HETATM   33  C   UNL     1      11.607  13.700  25.258  0.00  0.00     0.066 A 
HETATM   34  C   UNL     1      12.748  15.332  23.254  0.00  0.00     0.001 A 
HETATM   35  C   UNL     1      12.933  15.635  24.599  0.00  0.00     0.002 A 
HETATM   36  C   UNL     1      12.367  14.818  25.585  0.00  0.00     0.032 A 
HETATM   37  N   UNL     1      10.969  12.991  26.207  0.00  0.00    -0.259 NA
HETATM   38  C   UNL     1      10.163  11.969  25.801  0.00  0.00     0.129 C 
ENDBRANCH   1  29
TORSDOF 3
ENDMDL
MODEL 2
REMARK VINA RESULT:    -9.844      0.816      1.412
REMARK INTER + INTRA:         -13.145
REMARK INTER:                 -11.784
REMARK INTRA:                  -1.361
REMARK UNBOUND:                -1.575
REMARK  3 active torsions:
REMARK  status: ('A' for Active; 'I' for Inactive)
REMARK    1  A    between atoms: C_8  and  C_11 
REMARK    2  A    between atoms: C_17  and  N_24 
REMARK       I    between atoms: N_24  and  C_25 
REMARK    3  A    between atoms: C_25  and  C_27 
ROOT
HETATM    1  C   UNL     1       8.971  10.449  23.980  0.00  0.00    -0.013 A 
HETATM    2  C   UNL     1       9.544   9.147  24.039  0.00  0.00     0.013 A 
HETATM    3  C   UNL     1       8.852   7.979  23.671  0.00  0.00     0.002 A 
HETATM    4  C   UNL     1       7.561   8.066  23.180  0.00  0.00     0.010 A 
HETATM    5  C   UNL     1       7.619  10.511  23.570  0.00  0.00    -0.005 A 
HETATM    6  C   UNL     1       6.972   9.320  23.121  0.00  0.00    -0.019 A 
HETATM    7  C   UNL     1       5.600   9.610  22.535  0.00  0.00     0.153 C 
HETATM    8  C   UNL     1       5.510  11.109  22.701  0.00  0.00    -0.020 C 
HETATM    9  C   UNL     1       6.638  11.605  23.392  0.00  0.00    -0.016 C 
HETATM   10  C   UNL     1       4.462  11.929  22.293  0.00  0.00     0.010 C 
HETATM   11  C   UNL     1       4.532  13.288  22.581  0.00  0.00     0.001 C 
HETATM   12  C   UNL     1       5.596  13.782  23.341  0.00  0.00     0.001 C 
HETATM   13  C   UNL     1       6.619  12.933  23.789  0.00  0.00     0.013 C 
ENDROOT
BRANCH   7  14
HETATM   14  N   UNL     1       5.532   9.215  21.148  0.00  0.00    -0.344 N 
HETATM   15  C   UNL     1       4.923   8.044  20.759  0.00  0.00     0.256 C 
HETATM   16  O   UNL     1       4.462   7.239  21.559  0.00  0.00    -0.268 OA
HETATM   17  H   UNL     1       5.644   9.953  20.458  0.00  0.00     0.163 HD
BRANCH  15  18
HETATM   18  C   UNL     1       4.852   7.802  19.300  0.00  0.00     0.083 A 
HETATM   19  C   UNL     1       5.057   6.547  18.706  0.00  0.00     0.046 A 
HETATM   20 BR   UNL     1       5.512   4.969  19.658  0.00  0.00    -0.048 Br
HETATM   21  C   UNL     1       4.977   6.437  17.315  0.00  0.00     0.139 A 
HETATM   22  N   UNL     1       4.702   7.442  16.443  0.00  0.00    -0.240 NA
HETATM   23  C   UNL     1       4.509   8.611  17.071  0.00  0.00     0.158 A 
HETATM   24  C   UNL     1       4.567   8.874  18.433  0.00  0.00     0.121 A 
HETATM   25  N   UNL     1       4.209   9.804  16.482  0.00  0.00    -0.334 N 
HETATM   26  N   UNL     1       4.324  10.216  18.664  0.00  0.00    -0.239 NA
HETATM   27  C   UNL     1       4.095  10.736  17.476  0.00  0.00     0.209 A 
HETATM   28  H   UNL     1       4.088   9.949  15.491  0.00  0.00     0.168 HD
ENDBRANCH  15  18
ENDBRANCH   7  14
BRANCH   1  29
HETATM   29  C   UNL     1       9.840  11.615  24.281  0.00  0.00    -0.007 C 
HETATM   30  C   UNL     1      10.056  12.065  25.583  0.00  0.00     0.027 C 
HETATM   31  C   UNL     1      11.031  13.022  25.881  0.00  0.00    -0.007 A 
HETATM   32  C   UNL     1      11.451  13.233  27.205  0.00  0.00     0.014 A 
HETATM   33  C   UNL     1      11.612  13.730  24.819  0.00  0.00     0.066 A 
HETATM   34  C   UNL     1      12.422  14.187  27.486  0.00  0.00     0.001 A 
HETATM   35  C   UNL     1      12.932  14.965  26.453  0.00  0.00     0.002 A 
HETATM   36  C   UNL     1      12.522  14.733  25.134  0.00  0.00     0.032 A 
HETATM   37  N   UNL     1      11.315  13.437  23.539  0.00  0.00    -0.259 NA
HETATM   38  C   UNL     1      10.492  12.376  23.306  0.00  0.00     0.129 C 
ENDBRANCH   1  29
TORSDOF 3
ENDMDL
MODEL 3
REMARK VINA RESULT:    -9.843      4.023      9.053
REMARK INTER + INTRA:         -13.144
REMARK INTER:                 -11.532
REMARK INTRA:                  -1.611
REMARK UNBOUND:                -1.575
REMARK  3 active torsions:
REMARK  status: ('A' for Active; 'I' for Inactive)
REMARK    1  A    between atoms: C_8  and  C_11 
REMARK    2  A    between atoms: C_17  and  N_24 
REMARK       I    between atoms: N_24  and  C_25 
REMARK    3  A    between atoms: C_25  and  C_27 
ROOT
HETATM    1  C   UNL     1       3.306  13.974  23.799  0.00  0.00    -0.013 A 
HETATM    2  C   UNL     1       3.589  15.338  24.091  0.00  0.00     0.013 A 
HETATM    3  C   UNL     1       4.801  15.774  24.655  0.00  0.00     0.002 A 
HETATM    4  C   UNL     1       5.812  14.864  24.911  0.00  0.00     0.010 A 
HETATM    5  C   UNL     1       4.311  13.044  24.157  0.00  0.00    -0.005 A 
HETATM    6  C   UNL     1       5.563  13.526  24.646  0.00  0.00    -0.019 A 
HETATM    7  C   UNL     1       6.581  12.407  24.787  0.00  0.00     0.153 C 
HETATM    8  C   UNL     1       5.780  11.208  24.334  0.00  0.00    -0.020 C 
HETATM    9  C   UNL     1       4.441  11.572  24.069  0.00  0.00    -0.016 C 
HETATM   10  C   UNL     1       6.236   9.897  24.222  0.00  0.00     0.010 C 
HETATM   11  C   UNL     1       5.333   8.912  23.838  0.00  0.00     0.001 C 
HETATM   12  C   UNL     1       3.985   9.237  23.659  0.00  0.00     0.001 C 
HETATM   13  C   UNL     1       3.533  10.555  23.825  0.00  0.00     0.013 C 
ENDROOT
BRANCH   7  14
HETATM   14  N   UNL     1       7.730  12.639  23.944  0.00  0.00    -0.344 N 
HETATM   15  C   UNL     1       9.008  12.364  24.371  0.00  0.00     0.256 C 
HETATM   16  O   UNL     1       9.258  11.969  25.503  0.00  0.00    -0.268 OA
HETATM   17  H   UNL     1       7.557  12.694  22.943  0.00  0.00     0.163 HD
BRANCH  15  18
HETATM   18  C   UNL     1      10.085  12.570  23.376  0.00  0.00     0.083 A 
HETATM   19  C   UNL     1      10.709  11.527  22.674  0.00  0.00     0.046 A 
HETATM   20 BR   UNL     1      10.321   9.685  22.917  0.00  0.00    -0.048 Br
HETATM   21  C   UNL     1      11.724  11.838  21.765  0.00  0.00     0.139 A 
HETATM   22  N   UNL     1      12.184  13.080  21.465  0.00  0.00    -0.240 NA
HETATM   23  C   UNL     1      11.545  14.031  22.162  0.00  0.00     0.158 A 
HETATM   24  C   UNL     1      10.532  13.876  23.099  0.00  0.00     0.121 A 
HETATM   25  N   UNL     1      11.766  15.375  22.084  0.00  0.00    -0.334 N 
HETATM   26  N   UNL     1      10.160  15.111  23.599  0.00  0.00    -0.239 NA
HETATM   27  C   UNL     1      10.904  15.984  22.955  0.00  0.00     0.209 A 
HETATM   28  H   UNL     1      12.441  15.819  21.481  0.00  0.00     0.168 HD
ENDBRANCH  15  18
ENDBRANCH   7  14
BRANCH   1  29
HETATM   29  C   UNL     1       2.039  13.651  23.094  0.00  0.00    -0.007 C 
HETATM   30  C   UNL     1       0.951  13.078  23.749  0.00  0.00     0.027 C 
HETATM   31  C   UNL     1      -0.304  12.969  23.141  0.00  0.00    -0.007 A 
HETATM   32  C   UNL     1      -1.450  12.685  23.901  0.00  0.00     0.014 A 
HETATM   33  C   UNL     1      -0.393  13.199  21.761  0.00  0.00     0.066 A 
HETATM   34  C   UNL     1      -2.691  12.582  23.284  0.00  0.00     0.001 A 
HETATM   35  C   UNL     1      -2.776  12.708  21.902  0.00  0.00     0.002 A 
HETATM   36  C   UNL     1      -1.631  13.011  21.154  0.00  0.00     0.032 A 
HETATM   37  N   UNL     1       0.675  13.606  21.050  0.00  0.00    -0.259 NA
HETATM   38  C   UNL     1       1.828  13.864  21.729  0.00  0.00     0.129 C 
ENDBRANCH   1  29
TORSDOF 3
ENDMDL
MODEL 4
REMARK VINA RESULT:    -9.660      3.925      6.118
REMARK INTER + INTRA:         -12.928
REMARK INTER:                 -11.350
REMARK INTRA:                  -1.578
REMARK UNBOUND:                -1.575
REMARK  3 active torsions:
REMARK  status: ('A' for Active; 'I' for Inactive)
REMARK    1  A    between atoms: C_8  and  C_11 
REMARK    2  A    between atoms: C_17  and  N_24 
REMARK       I    between atoms: N_24  and  C_25 
REMARK    3  A    between atoms: C_25  and  C_27 
ROOT
HETATM    1  C   UNL     1       4.859  10.896  20.114  0.00  0.00    -0.013 A 
HETATM    2  C   UNL     1       4.720  11.215  18.734  0.00  0.00     0.013 A 
HETATM    3  C   UNL     1       4.699  10.248  17.714  0.00  0.00     0.002 A 
HETATM    4  C   UNL     1       4.770   8.903  18.034  0.00  0.00     0.010 A 
HETATM    5  C   UNL     1       5.028   9.525  20.417  0.00  0.00    -0.005 A 
HETATM    6  C   UNL     1       4.915   8.561  19.369  0.00  0.00    -0.019 A 
HETATM    7  C   UNL     1       4.925   7.139  19.907  0.00  0.00     0.153 C 
HETATM    8  C   UNL     1       5.067   7.378  21.393  0.00  0.00    -0.020 C 
HETATM    9  C   UNL     1       5.227   8.754  21.665  0.00  0.00    -0.016 C 
HETATM   10  C   UNL     1       5.092   6.408  22.392  0.00  0.00     0.010 C 
HETATM   11  C   UNL     1       5.286   6.817  23.707  0.00  0.00     0.001 C 
HETATM   12  C   UNL     1       5.536   8.164  23.986  0.00  0.00     0.001 C 
HETATM   13  C   UNL     1       5.557   9.121  22.960  0.00  0.00     0.013 C 
ENDROOT
BRANCH   7  14
HETATM   14  N   UNL     1       3.696   6.453  19.585  0.00  0.00    -0.344 N 
HETATM   15  C   UNL     1       3.670   5.103  19.323  0.00  0.00     0.256 C 
HETATM   16  O   UNL     1       4.683   4.415  19.282  0.00  0.00    -0.268 OA
HETATM   17  H   UNL     1       2.832   6.905  19.874  0.00  0.00     0.163 HD
BRANCH  15  18
HETATM   18  C   UNL     1       2.333   4.512  19.090  0.00  0.00     0.083 A 
HETATM   19  C   UNL     1       1.435   4.182  20.118  0.00  0.00     0.046 A 
HETATM   20 BR   UNL     1       1.801   4.385  21.970  0.00  0.00    -0.048 Br
HETATM   21  C   UNL     1       0.202   3.617  19.782  0.00  0.00     0.139 A 
HETATM   22  N   UNL     1      -0.247   3.351  18.527  0.00  0.00    -0.240 NA
HETATM   23  C   UNL     1       0.651   3.694  17.592  0.00  0.00     0.158 A 
HETATM   24  C   UNL     1       1.910   4.250  17.773  0.00  0.00     0.121 A 
HETATM   25  N   UNL     1       0.501   3.563  16.243  0.00  0.00    -0.334 N 
HETATM   26  N   UNL     1       2.523   4.434  16.547  0.00  0.00    -0.239 NA
HETATM   27  C   UNL     1       1.644   4.031  15.655  0.00  0.00     0.209 A 
HETATM   28  H   UNL     1      -0.317   3.194  15.782  0.00  0.00     0.168 HD
ENDBRANCH  15  18
ENDBRANCH   7  14
BRANCH   1  29
HETATM   29  C   UNL     1       4.747  11.995  21.107  0.00  0.00    -0.007 C 
HETATM   30  C   UNL     1       5.858  12.708  21.554  0.00  0.00     0.027 C 
HETATM   31  C   UNL     1       5.730  13.870  22.321  0.00  0.00    -0.007 A 
HETATM   32  C   UNL     1       6.819  14.740  22.497  0.00  0.00     0.014 A 
HETATM   33  C   UNL     1       4.474  14.168  22.869  0.00  0.00     0.066 A 
HETATM   34  C   UNL     1       6.676  15.892  23.260  0.00  0.00     0.001 A 
HETATM   35  C   UNL     1       5.463  16.146  23.891  0.00  0.00     0.002 A 
HETATM   36  C   UNL     1       4.378  15.283  23.693  0.00  0.00     0.032 A 
HETATM   37  N   UNL     1       3.394  13.414  22.591  0.00  0.00    -0.259 NA
HETATM   38  C   UNL     1       3.544  12.397  21.695  0.00  0.00     0.129 C 
ENDBRANCH   1  29
TORSDOF 3
ENDMDL
MODEL 5
REMARK VINA RESULT:    -9.541      3.849      6.249
REMARK INTER + INTRA:         -12.789
REMARK INTER:                 -11.183
REMARK INTRA:                  -1.606
REMARK UNBOUND:                -1.575
REMARK  3 active torsions:
REMARK  status: ('A' for Active; 'I' for Inactive)
REMARK    1  A    between atoms: C_8  and  C_11 
REMARK    2  A    between atoms: C_17  and  N_24 
REMARK       I    between atoms: N_24  and  C_25 
REMARK    3  A    between atoms: C_25  and  C_27 
ROOT
HETATM    1  C   UNL     1       4.721  11.114  19.778  0.00  0.00    -0.013 A 
HETATM    2  C   UNL     1       4.378  11.571  18.474  0.00  0.00     0.013 A 
HETATM    3  C   UNL     1       4.304  10.726  17.352  0.00  0.00     0.002 A 
HETATM    4  C   UNL     1       4.525   9.367  17.494  0.00  0.00     0.010 A 
HETATM    5  C   UNL     1       5.041   9.741  19.887  0.00  0.00    -0.005 A 
HETATM    6  C   UNL     1       4.871   8.894  18.750  0.00  0.00    -0.019 A 
HETATM    7  C   UNL     1       5.068   7.429  19.104  0.00  0.00     0.153 C 
HETATM    8  C   UNL     1       5.383   7.512  20.580  0.00  0.00    -0.020 C 
HETATM    9  C   UNL     1       5.464   8.859  20.998  0.00  0.00    -0.016 C 
HETATM   10  C   UNL     1       5.617   6.445  21.442  0.00  0.00     0.010 C 
HETATM   11  C   UNL     1       5.947   6.721  22.765  0.00  0.00     0.001 C 
HETATM   12  C   UNL     1       6.120   8.046  23.175  0.00  0.00     0.001 C 
HETATM   13  C   UNL     1       5.929   9.109  22.280  0.00  0.00     0.013 C 
ENDROOT
BRANCH   7  14
HETATM   14  N   UNL     1       3.868   6.666  18.850  0.00  0.00    -0.344 N 
HETATM   15  C   UNL     1       3.919   5.372  18.386  0.00  0.00     0.256 C 
HETATM   16  O   UNL     1       4.969   4.811  18.101  0.00  0.00    -0.268 OA
HETATM   17  H   UNL     1       3.022   6.978  19.321  0.00  0.00     0.163 HD
BRANCH  15  18
HETATM   18  C   UNL     1       2.617   4.680  18.249  0.00  0.00     0.083 A 
HETATM   19  C   UNL     1       2.133   4.163  17.037  0.00  0.00     0.046 A 
HETATM   20 BR   UNL     1       3.030   4.310  15.371  0.00  0.00    -0.048 Br
HETATM   21  C   UNL     1       0.883   3.538  17.021  0.00  0.00     0.139 A 
HETATM   22  N   UNL     1       0.060   3.358  18.087  0.00  0.00    -0.240 NA
HETATM   23  C   UNL     1       0.581   3.866  19.213  0.00  0.00     0.158 A 
HETATM   24  C   UNL     1       1.795   4.518  19.380  0.00  0.00     0.121 A 
HETATM   25  N   UNL     1       0.008   3.840  20.451  0.00  0.00    -0.334 N 
HETATM   26  N   UNL     1       1.946   4.902  20.700  0.00  0.00    -0.239 NA
HETATM   27  C   UNL     1       0.867   4.462  21.314  0.00  0.00     0.209 A 
HETATM   28  H   UNL     1      -0.884   3.424  20.670  0.00  0.00     0.168 HD
ENDBRANCH  15  18
ENDBRANCH   7  14
BRANCH   1  29
HETATM   29  C   UNL     1       4.650  12.080  20.904  0.00  0.00    -0.007 C 
HETATM   30  C   UNL     1       5.776  12.750  21.380  0.00  0.00     0.027 C 
HETATM   31  C   UNL     1       5.676  13.806  22.291  0.00  0.00    -0.007 A 
HETATM   32  C   UNL     1       6.764  14.665  22.520  0.00  0.00     0.014 A 
HETATM   33  C   UNL     1       4.447  14.012  22.935  0.00  0.00     0.066 A 
HETATM   34  C   UNL     1       6.650  15.711  23.427  0.00  0.00     0.001 A 
HETATM   35  C   UNL     1       5.469  15.864  24.145  0.00  0.00     0.002 A 
HETATM   36  C   UNL     1       4.383  15.015  23.896  0.00  0.00     0.032 A 
HETATM   37  N   UNL     1       3.362  13.281  22.620  0.00  0.00    -0.259 NA
HETATM   38  C   UNL     1       3.476  12.385  21.598  0.00  0.00     0.129 C 
ENDBRANCH   1  29
TORSDOF 3
ENDMDL
MODEL 6
REMARK VINA RESULT:    -9.526      1.808      2.562
REMARK INTER + INTRA:         -12.771
REMARK INTER:                 -12.050
REMARK INTRA:                  -0.721
REMARK UNBOUND:                -1.575
REMARK  3 active torsions:
REMARK  status: ('A' for Active; 'I' for Inactive)
REMARK    1  A    between atoms: C_8  and  C_11 
REMARK    2  A    between atoms: C_17  and  N_24 
REMARK       I    between atoms: N_24  and  C_25 
REMARK    3  A    between atoms: C_25  and  C_27 
ROOT
HETATM    1  C   UNL     1       8.668  10.598  23.113  0.00  0.00    -0.013 A 
HETATM    2  C   UNL     1       9.224   9.291  23.206  0.00  0.00     0.013 A 
HETATM    3  C   UNL     1       8.457   8.115  23.118  0.00  0.00     0.002 A 
HETATM    4  C   UNL     1       7.096   8.193  22.882  0.00  0.00     0.010 A 
HETATM    5  C   UNL     1       7.262  10.662  22.970  0.00  0.00    -0.005 A 
HETATM    6  C   UNL     1       6.524   9.453  22.795  0.00  0.00    -0.019 A 
HETATM    7  C   UNL     1       5.066   9.725  22.459  0.00  0.00     0.153 C 
HETATM    8  C   UNL     1       5.030  11.236  22.466  0.00  0.00    -0.020 C 
HETATM    9  C   UNL     1       6.279  11.764  22.862  0.00  0.00    -0.016 C 
HETATM   10  C   UNL     1       3.933  12.043  22.179  0.00  0.00     0.010 C 
HETATM   11  C   UNL     1       4.077  13.422  22.291  0.00  0.00     0.001 C 
HETATM   12  C   UNL     1       5.277  13.959  22.767  0.00  0.00     0.001 C 
HETATM   13  C   UNL     1       6.357  13.127  23.100  0.00  0.00     0.013 C 
ENDROOT
BRANCH   7  14
HETATM   14  N   UNL     1       4.720   9.183  21.167  0.00  0.00    -0.344 N 
HETATM   15  C   UNL     1       5.401   9.542  20.026  0.00  0.00     0.256 C 
HETATM   16  O   UNL     1       6.291  10.383  20.022  0.00  0.00    -0.268 OA
HETATM   17  H   UNL     1       4.201   8.308  21.164  0.00  0.00     0.163 HD
BRANCH  15  18
HETATM   18  C   UNL     1       4.997   8.848  18.783  0.00  0.00     0.083 A 
HETATM   19  C   UNL     1       4.378   9.488  17.697  0.00  0.00     0.046 A 
HETATM   20 BR   UNL     1       3.906  11.326  17.660  0.00  0.00    -0.048 Br
HETATM   21  C   UNL     1       4.029   8.730  16.576  0.00  0.00     0.139 A 
HETATM   22  N   UNL     1       4.239   7.399  16.408  0.00  0.00    -0.240 NA
HETATM   23  C   UNL     1       4.838   6.848  17.473  0.00  0.00     0.158 A 
HETATM   24  C   UNL     1       5.231   7.466  18.652  0.00  0.00     0.121 A 
HETATM   25  N   UNL     1       5.192   5.538  17.613  0.00  0.00    -0.334 N 
HETATM   26  N   UNL     1       5.798   6.535  19.505  0.00  0.00    -0.239 NA
HETATM   27  C   UNL     1       5.775   5.398  18.842  0.00  0.00     0.209 A 
HETATM   28  H   UNL     1       5.048   4.819  16.919  0.00  0.00     0.168 HD
ENDBRANCH  15  18
ENDBRANCH   7  14
BRANCH   1  29
HETATM   29  C   UNL     1       9.594  11.759  23.102  0.00  0.00    -0.007 C 
HETATM   30  C   UNL     1       9.887  12.485  24.255  0.00  0.00     0.027 C 
HETATM   31  C   UNL     1      10.912  13.437  24.287  0.00  0.00    -0.007 A 
HETATM   32  C   UNL     1      11.400  13.927  25.509  0.00  0.00     0.014 A 
HETATM   33  C   UNL     1      11.469  13.852  23.069  0.00  0.00     0.066 A 
HETATM   34  C   UNL     1      12.420  14.872  25.526  0.00  0.00     0.001 A 
HETATM   35  C   UNL     1      12.911  15.365  24.322  0.00  0.00     0.002 A 
HETATM   36  C   UNL     1      12.431  14.855  23.109  0.00  0.00     0.032 A 
HETATM   37  N   UNL     1      11.103  13.286  21.904  0.00  0.00    -0.259 NA
HETATM   38  C   UNL     1      10.229  12.241  21.954  0.00  0.00     0.129 C 
ENDBRANCH   1  29
TORSDOF 3
ENDMDL
MODEL 7
REMARK VINA RESULT:    -9.519      4.651      7.078
REMARK INTER + INTRA:         -12.763
REMARK INTER:                 -11.090
REMARK INTRA:                  -1.674
REMARK UNBOUND:                -1.575
REMARK  3 active torsions:
REMARK  status: ('A' for Active; 'I' for Inactive)
REMARK    1  A    between atoms: C_8  and  C_11 
REMARK    2  A    between atoms: C_17  and  N_24 
REMARK       I    between atoms: N_24  and  C_25 
REMARK    3  A    between atoms: C_25  and  C_27 
ROOT
HETATM    1  C   UNL     1       5.276  13.101  23.333  0.00  0.00    -0.013 A 
HETATM    2  C   UNL     1       4.058  13.830  23.220  0.00  0.00     0.013 A 
HETATM    3  C   UNL     1       2.788  13.227  23.266  0.00  0.00     0.002 A 
HETATM    4  C   UNL     1       2.676  11.864  23.476  0.00  0.00     0.010 A 
HETATM    5  C   UNL     1       5.147  11.697  23.449  0.00  0.00    -0.005 A 
HETATM    6  C   UNL     1       3.845  11.126  23.580  0.00  0.00    -0.019 A 
HETATM    7  C   UNL     1       3.911   9.640  23.893  0.00  0.00     0.153 C 
HETATM    8  C   UNL     1       5.403   9.400  23.920  0.00  0.00    -0.020 C 
HETATM    9  C   UNL     1       6.104  10.573  23.563  0.00  0.00    -0.016 C 
HETATM   10  C   UNL     1       6.047   8.199  24.204  0.00  0.00     0.010 C 
HETATM   11  C   UNL     1       7.435   8.158  24.127  0.00  0.00     0.001 C 
HETATM   12  C   UNL     1       8.140   9.282  23.689  0.00  0.00     0.001 C 
HETATM   13  C   UNL     1       7.471  10.470  23.358  0.00  0.00     0.013 C 
ENDROOT
BRANCH   7  14
HETATM   14  N   UNL     1       3.293   9.348  25.165  0.00  0.00    -0.344 N 
HETATM   15  C   UNL     1       2.582   8.189  25.374  0.00  0.00     0.256 C 
HETATM   16  O   UNL     1       2.373   7.370  24.488  0.00  0.00    -0.268 OA
HETATM   17  H   UNL     1       3.663   9.840  25.974  0.00  0.00     0.163 HD
BRANCH  15  18
HETATM   18  C   UNL     1       2.073   7.978  26.749  0.00  0.00     0.083 A 
HETATM   19  C   UNL     1       0.716   8.059  27.099  0.00  0.00     0.046 A 
HETATM   20 BR   UNL     1      -0.681   8.502  25.894  0.00  0.00    -0.048 Br
HETATM   21  C   UNL     1       0.350   7.853  28.433  0.00  0.00     0.139 A 
HETATM   22  N   UNL     1       1.188   7.562  29.461  0.00  0.00    -0.240 NA
HETATM   23  C   UNL     1       2.466   7.492  29.061  0.00  0.00     0.158 A 
HETATM   24  C   UNL     1       2.978   7.682  27.785  0.00  0.00     0.121 A 
HETATM   25  N   UNL     1       3.544   7.211  29.849  0.00  0.00    -0.334 N 
HETATM   26  N   UNL     1       4.354   7.539  27.804  0.00  0.00    -0.239 NA
HETATM   27  C   UNL     1       4.654   7.238  29.050  0.00  0.00     0.209 A 
HETATM   28  H   UNL     1       3.507   7.014  30.837  0.00  0.00     0.168 HD
ENDBRANCH  15  18
ENDBRANCH   7  14
BRANCH   1  29
HETATM   29  C   UNL     1       6.550  13.862  23.390  0.00  0.00    -0.007 C 
HETATM   30  C   UNL     1       7.081  14.334  24.589  0.00  0.00     0.027 C 
HETATM   31  C   UNL     1       8.373  14.862  24.668  0.00  0.00    -0.007 A 
HETATM   32  C   UNL     1       9.004  15.040  25.910  0.00  0.00     0.014 A 
HETATM   33  C   UNL     1       9.039  15.164  23.471  0.00  0.00     0.066 A 
HETATM   34  C   UNL     1      10.290  15.564  25.972  0.00  0.00     0.001 A 
HETATM   35  C   UNL     1      10.921  15.961  24.799  0.00  0.00     0.002 A 
HETATM   36  C   UNL     1      10.292  15.761  23.563  0.00  0.00     0.032 A 
HETATM   37  N   UNL     1       8.497  14.869  22.275  0.00  0.00    -0.259 NA
HETATM   38  C   UNL     1       7.312  14.194  22.266  0.00  0.00     0.129 C 
ENDBRANCH   1  29
TORSDOF 3
ENDMDL
MODEL 8
REMARK VINA RESULT:    -9.396      4.963      7.045
REMARK INTER + INTRA:         -12.618
REMARK INTER:                 -11.044
REMARK INTRA:                  -1.575
REMARK UNBOUND:                -1.575
REMARK  3 active torsions:
REMARK  status: ('A' for Active; 'I' for Inactive)
REMARK    1  A    between atoms: C_8  and  C_11 
REMARK    2  A    between atoms: C_17  and  N_24 
REMARK       I    between atoms: N_24  and  C_25 
REMARK    3  A    between atoms: C_25  and  C_27 
ROOT
HETATM    1  C   UNL     1       5.258  12.513  23.780  0.00  0.00    -0.013 A 
HETATM    2  C   UNL     1       4.066  13.292  23.783  0.00  0.00     0.013 A 
HETATM    3  C   UNL     1       2.778  12.735  23.870  0.00  0.00     0.002 A 
HETATM    4  C   UNL     1       2.624  11.366  24.008  0.00  0.00     0.010 A 
HETATM    5  C   UNL     1       5.080  11.111  23.823  0.00  0.00    -0.005 A 
HETATM    6  C   UNL     1       3.766  10.581  23.999  0.00  0.00    -0.019 A 
HETATM    7  C   UNL     1       3.789   9.077  24.221  0.00  0.00     0.153 C 
HETATM    8  C   UNL     1       5.270   8.782  24.145  0.00  0.00    -0.020 C 
HETATM    9  C   UNL     1       5.996   9.948  23.814  0.00  0.00    -0.016 C 
HETATM   10  C   UNL     1       5.881   7.543  24.320  0.00  0.00     0.010 C 
HETATM   11  C   UNL     1       7.259   7.456  24.158  0.00  0.00     0.001 C 
HETATM   12  C   UNL     1       7.983   8.577  23.743  0.00  0.00     0.001 C 
HETATM   13  C   UNL     1       7.343   9.807  23.522  0.00  0.00     0.013 C 
ENDROOT
BRANCH   7  14
HETATM   14  N   UNL     1       3.236   8.733  25.509  0.00  0.00    -0.344 N 
HETATM   15  C   UNL     1       2.401   7.651  25.672  0.00  0.00     0.256 C 
HETATM   16  O   UNL     1       2.026   6.956  24.735  0.00  0.00    -0.268 OA
HETATM   17  H   UNL     1       3.723   9.094  26.326  0.00  0.00     0.163 HD
BRANCH  15  18
HETATM   18  C   UNL     1       1.973   7.363  27.059  0.00  0.00     0.083 A 
HETATM   19  C   UNL     1       2.729   6.606  27.968  0.00  0.00     0.046 A 
HETATM   20 BR   UNL     1       4.389   5.782  27.560  0.00  0.00    -0.048 Br
HETATM   21  C   UNL     1       2.220   6.387  29.251  0.00  0.00     0.139 A 
HETATM   22  N   UNL     1       1.040   6.850  29.739  0.00  0.00    -0.240 NA
HETATM   23  C   UNL     1       0.370   7.570  28.828  0.00  0.00     0.158 A 
HETATM   24  C   UNL     1       0.740   7.861  27.522  0.00  0.00     0.121 A 
HETATM   25  N   UNL     1      -0.838   8.178  29.008  0.00  0.00    -0.334 N 
HETATM   26  N   UNL     1      -0.243   8.619  26.912  0.00  0.00    -0.239 NA
HETATM   27  C   UNL     1      -1.162   8.805  27.837  0.00  0.00     0.209 A 
HETATM   28  H   UNL     1      -1.375   8.162  29.862  0.00  0.00     0.168 HD
ENDBRANCH  15  18
ENDBRANCH   7  14
BRANCH   1  29
HETATM   29  C   UNL     1       6.563  13.222  23.804  0.00  0.00    -0.007 C 
HETATM   30  C   UNL     1       7.112  13.806  22.663  0.00  0.00     0.027 C 
HETATM   31  C   UNL     1       8.227  14.647  22.728  0.00  0.00    -0.007 A 
HETATM   32  C   UNL     1       8.575  15.466  21.641  0.00  0.00     0.014 A 
HETATM   33  C   UNL     1       8.960  14.686  23.923  0.00  0.00     0.066 A 
HETATM   34  C   UNL     1       9.685  16.298  21.720  0.00  0.00     0.001 A 
HETATM   35  C   UNL     1      10.477  16.270  22.863  0.00  0.00     0.002 A 
HETATM   36  C   UNL     1      10.111  15.465  23.949  0.00  0.00     0.032 A 
HETATM   37  N   UNL     1       8.553  14.010  25.013  0.00  0.00    -0.259 NA
HETATM   38  C   UNL     1       7.363  13.349  24.943  0.00  0.00     0.129 C 
ENDBRANCH   1  29
TORSDOF 3
ENDMDL
MODEL 9
REMARK VINA RESULT:    -9.374      3.879      5.954
REMARK INTER + INTRA:         -12.592
REMARK INTER:                 -10.908
REMARK INTRA:                  -1.684
REMARK UNBOUND:                -1.575
REMARK  3 active torsions:
REMARK  status: ('A' for Active; 'I' for Inactive)
REMARK    1  A    between atoms: C_8  and  C_11 
REMARK    2  A    between atoms: C_17  and  N_24 
REMARK       I    between atoms: N_24  and  C_25 
REMARK    3  A    between atoms: C_25  and  C_27 
ROOT
HETATM    1  C   UNL     1       6.362  12.571  22.592  0.00  0.00    -0.013 A 
HETATM    2  C   UNL     1       5.138  13.153  22.157  0.00  0.00     0.013 A 
HETATM    3  C   UNL     1       3.968  12.409  21.923  0.00  0.00     0.002 A 
HETATM    4  C   UNL     1       3.955  11.046  22.161  0.00  0.00     0.010 A 
HETATM    5  C   UNL     1       6.361  11.164  22.736  0.00  0.00    -0.005 A 
HETATM    6  C   UNL     1       5.135  10.449  22.576  0.00  0.00    -0.019 A 
HETATM    7  C   UNL     1       5.281   8.986  22.962  0.00  0.00     0.153 C 
HETATM    8  C   UNL     1       6.738   8.920  23.358  0.00  0.00    -0.020 C 
HETATM    9  C   UNL     1       7.375  10.160  23.127  0.00  0.00    -0.016 C 
HETATM   10  C   UNL     1       7.419   7.807  23.842  0.00  0.00     0.010 C 
HETATM   11  C   UNL     1       8.780   7.924  24.103  0.00  0.00     0.001 C 
HETATM   12  C   UNL     1       9.446   9.114  23.797  0.00  0.00     0.001 C 
HETATM   13  C   UNL     1       8.754  10.211  23.262  0.00  0.00     0.013 C 
ENDROOT
BRANCH   7  14
HETATM   14  N   UNL     1       4.407   8.648  24.060  0.00  0.00    -0.344 N 
HETATM   15  C   UNL     1       3.784   7.424  24.137  0.00  0.00     0.256 C 
HETATM   16  O   UNL     1       3.876   6.576  23.258  0.00  0.00    -0.268 OA
HETATM   17  H   UNL     1       4.521   9.186  24.916  0.00  0.00     0.163 HD
BRANCH  15  18
HETATM   18  C   UNL     1       2.982   7.178  25.357  0.00  0.00     0.083 A 
HETATM   19  C   UNL     1       3.381   6.318  26.393  0.00  0.00     0.046 A 
HETATM   20 BR   UNL     1       4.976   5.289  26.381  0.00  0.00    -0.048 Br
HETATM   21  C   UNL     1       2.538   6.153  27.495  0.00  0.00     0.139 A 
HETATM   22  N   UNL     1       1.338   6.761  27.690  0.00  0.00    -0.240 NA
HETATM   23  C   UNL     1       1.018   7.572  26.672  0.00  0.00     0.158 A 
HETATM   24  C   UNL     1       1.743   7.827  25.516  0.00  0.00     0.121 A 
HETATM   25  N   UNL     1      -0.112   8.330  26.568  0.00  0.00    -0.334 N 
HETATM   26  N   UNL     1       1.050   8.714  24.712  0.00  0.00    -0.239 NA
HETATM   27  C   UNL     1      -0.045   9.007  25.382  0.00  0.00     0.209 A 
HETATM   28  H   UNL     1      -0.847   8.375  27.257  0.00  0.00     0.168 HD
ENDBRANCH  15  18
ENDBRANCH   7  14
BRANCH   1  29
HETATM   29  C   UNL     1       7.495  13.475  22.919  0.00  0.00    -0.007 C 
HETATM   30  C   UNL     1       7.668  14.019  24.190  0.00  0.00     0.027 C 
HETATM   31  C   UNL     1       8.838  14.693  24.552  0.00  0.00    -0.007 A 
HETATM   32  C   UNL     1       9.129  14.957  25.900  0.00  0.00     0.014 A 
HETATM   33  C   UNL     1       9.735  15.055  23.536  0.00  0.00     0.066 A 
HETATM   34  C   UNL     1      10.298  15.627  26.245  0.00  0.00     0.001 A 
HETATM   35  C   UNL     1      11.145  16.079  25.240  0.00  0.00     0.002 A 
HETATM   36  C   UNL     1      10.856  15.794  23.899  0.00  0.00     0.032 A 
HETATM   37  N   UNL     1       9.530  14.685  22.259  0.00  0.00    -0.259 NA
HETATM   38  C   UNL     1       8.464  13.878  21.995  0.00  0.00     0.129 C 
ENDBRANCH   1  29
TORSDOF 3
ENDMDL
