MODEL 1
REMARK minimizedAffinity -9.24315834
REMARK minimizedRMSD -1
REMARK  5 active torsions:
REMARK  status: ('A' for Active; 'I' for Inactive)
REMARK    1  A    between atoms: C_7  and  N_8 
REMARK       I    between atoms: N_8  and  C_10 
REMARK    2  A    between atoms: C_10  and  C_12 
REMARK    3  A    between atoms: C_14  and  O_15 
REMARK    4  A    between atoms: C_22  and  C_23 
REMARK    5  A    between atoms: C_23  and  C_24 
ROOT
HETATM    1  C   UNL     1       4.319  13.871  24.797  0.00  0.00     0.066 C 
HETATM    2  C   UNL     1       5.406  13.179  24.219  0.00  0.00     0.035 C 
HETATM    3  C   UNL     1       4.564  14.576  25.996  0.00  0.00     0.083 C 
HETATM    4  C   UNL     1       5.799  14.517  26.659  0.00  0.00     0.069 C 
HETATM    5  C   UNL     1       6.769  13.662  26.130  0.00  0.00     0.065 A 
HETATM    6  C   UNL     1       6.598  12.961  24.947  0.00  0.00     0.020 A 
HETATM    7  N   UNL     1       8.018  13.326  26.559  0.00  0.00    -0.277 N 
HETATM    8  H   UNL     1       8.504  13.686  27.379  0.00  0.00     0.189 HD
HETATM    9  N   UNL     1       8.624  12.386  25.823  0.00  0.00    -0.178 NA
HETATM   10  C   UNL     1       7.754  12.118  24.831  0.00  0.00     0.071 A 
ENDROOT
BRANCH   1  11
HETATM   11  C   UNL     1       2.912  13.876  24.218  0.00  0.00     0.260 C 
HETATM   12  N   UNL     1       2.152  12.676  24.062  0.00  0.00    -0.318 N 
HETATM   13  C   UNL     1       2.721  11.380  24.435  0.00  0.00     0.159 C 
HETATM   14  O   UNL     1       2.467  15.008  23.995  0.00  0.00    -0.267 OA
BRANCH  12  15
HETATM   15  C   UNL     1       0.857  12.636  23.383  0.00  0.00     0.037 C 
HETATM   16  C   UNL     1       0.731  13.056  22.043  0.00  0.00     0.030 C 
HETATM   17  C   UNL     1      -0.505  13.243  21.418  0.00  0.00     0.009 C 
HETATM   18  C   UNL     1      -1.681  12.977  22.102  0.00  0.00    -0.062 C 
HETATM   19  C   UNL     1      -3.005  13.297  21.478  0.00  0.00     0.048 C 
HETATM   20  C   UNL     1      -1.589  12.423  23.379  0.00  0.00     0.009 C 
HETATM   21  C   UNL     1      -0.337  12.255  24.009  0.00  0.00     0.030 C 
ENDBRANCH  12  15
ENDBRANCH   1  11
BRANCH   3  22
HETATM   22  O   UNL     1       3.627  15.380  26.603  0.00  0.00    -0.360 OA
HETATM   23  H   UNL     1       2.857  15.459  25.995  0.00  0.00     0.217 HD
ENDBRANCH   3  22
BRANCH  10  24
HETATM   24  C   UNL     1       8.109  11.038  23.827  0.00  0.00     0.100 C 
BRANCH  24  25
HETATM   25  C   UNL     1       6.918  10.127  23.524  0.00  0.00    -0.052 C 
HETATM   26  C   UNL     1       6.397   9.221  24.458  0.00  0.00     0.007 C 
HETATM   27  C   UNL     1       5.284   8.431  24.160  0.00  0.00     0.001 C 
HETATM   28  C   UNL     1       4.739   8.438  22.882  0.00  0.00     0.007 C 
HETATM   29  C   UNL     1       5.324   9.208  21.874  0.00  0.00    -0.061 C 
HETATM   30  C   UNL     1       6.377  10.086  22.213  0.00  0.00     0.014 C 
HETATM   31  C   UNL     1       4.812   9.061  20.466  0.00  0.00     0.048 C 
ENDBRANCH  24  25
ENDBRANCH  10  24
TORSDOF 5
ENDMDL
MODEL 2
REMARK minimizedAffinity -9.14529514
REMARK minimizedRMSD -1
REMARK  5 active torsions:
REMARK  status: ('A' for Active; 'I' for Inactive)
REMARK    1  A    between atoms: C_7  and  N_8 
REMARK       I    between atoms: N_8  and  C_10 
REMARK    2  A    between atoms: C_10  and  C_12 
REMARK    3  A    between atoms: C_14  and  O_15 
REMARK    4  A    between atoms: C_22  and  C_23 
REMARK    5  A    between atoms: C_23  and  C_24 
ROOT
HETATM    1  C   UNL     1       3.547   7.310  24.709  0.00  0.00     0.066 C 
HETATM    2  C   UNL     1       4.522   8.300  24.454  0.00  0.00     0.035 C 
HETATM    3  C   UNL     1       3.105   6.538  23.613  0.00  0.00     0.083 C 
HETATM    4  C   UNL     1       3.522   6.798  22.299  0.00  0.00     0.069 C 
HETATM    5  C   UNL     1       4.341   7.912  22.095  0.00  0.00     0.065 A 
HETATM    6  C   UNL     1       4.826   8.695  23.131  0.00  0.00     0.020 A 
HETATM    7  N   UNL     1       4.854   8.471  20.963  0.00  0.00    -0.277 N 
HETATM    8  H   UNL     1       4.745   8.135  20.008  0.00  0.00     0.189 HD
HETATM    9  N   UNL     1       5.531   9.609  21.163  0.00  0.00    -0.178 NA
HETATM   10  C   UNL     1       5.506   9.789  22.497  0.00  0.00     0.071 A 
ENDROOT
BRANCH   1  11
HETATM   11  C   UNL     1       2.938   7.053  26.080  0.00  0.00     0.260 C 
HETATM   12  N   UNL     1       2.125   8.023  26.743  0.00  0.00    -0.318 N 
HETATM   13  C   UNL     1       1.867   9.326  26.126  0.00  0.00     0.159 C 
HETATM   14  O   UNL     1       3.134   5.909  26.507  0.00  0.00    -0.267 OA
BRANCH  12  15
HETATM   15  C   UNL     1       1.644   7.856  28.113  0.00  0.00     0.037 C 
HETATM   16  C   UNL     1       2.540   7.567  29.163  0.00  0.00     0.030 C 
HETATM   17  C   UNL     1       2.119   7.187  30.440  0.00  0.00     0.009 C 
HETATM   18  C   UNL     1       0.766   7.117  30.738  0.00  0.00    -0.062 C 
HETATM   19  C   UNL     1       0.312   6.589  32.063  0.00  0.00     0.048 C 
HETATM   20  C   UNL     1      -0.144   7.535  29.766  0.00  0.00     0.009 C 
HETATM   21  C   UNL     1       0.290   7.900  28.473  0.00  0.00     0.030 C 
ENDBRANCH  12  15
ENDBRANCH   1  11
BRANCH   3  22
HETATM   22  O   UNL     1       2.245   5.473  23.739  0.00  0.00    -0.360 OA
HETATM   23  H   UNL     1       2.124   5.293  24.699  0.00  0.00     0.217 HD
ENDBRANCH   3  22
BRANCH  10  24
HETATM   24  C   UNL     1       6.148  11.037  23.073  0.00  0.00     0.100 C 
BRANCH  24  25
HETATM   25  C   UNL     1       5.103  12.041  23.563  0.00  0.00    -0.052 C 
HETATM   26  C   UNL     1       3.726  11.856  23.378  0.00  0.00     0.007 C 
HETATM   27  C   UNL     1       2.799  12.776  23.872  0.00  0.00     0.001 C 
HETATM   28  C   UNL     1       3.226  13.963  24.454  0.00  0.00     0.007 C 
HETATM   29  C   UNL     1       4.589  14.262  24.517  0.00  0.00    -0.061 C 
HETATM   30  C   UNL     1       5.521  13.279  24.117  0.00  0.00     0.014 C 
HETATM   31  C   UNL     1       5.006  15.626  24.998  0.00  0.00     0.048 C 
ENDBRANCH  24  25
ENDBRANCH  10  24
TORSDOF 5
ENDMDL
MODEL 3
REMARK minimizedAffinity -9.00777149
REMARK minimizedRMSD -1
REMARK  5 active torsions:
REMARK  status: ('A' for Active; 'I' for Inactive)
REMARK    1  A    between atoms: C_7  and  N_8 
REMARK       I    between atoms: N_8  and  C_10 
REMARK    2  A    between atoms: C_10  and  C_12 
REMARK    3  A    between atoms: C_14  and  O_15 
REMARK    4  A    between atoms: C_22  and  C_23 
REMARK    5  A    between atoms: C_23  and  C_24 
ROOT
HETATM    1  C   UNL     1       4.125   7.827  24.295  0.00  0.00     0.066 C 
HETATM    2  C   UNL     1       5.222   8.716  24.288  0.00  0.00     0.035 C 
HETATM    3  C   UNL     1       3.661   7.361  23.045  0.00  0.00     0.083 C 
HETATM    4  C   UNL     1       4.182   7.832  21.831  0.00  0.00     0.069 C 
HETATM    5  C   UNL     1       5.136   8.851  21.896  0.00  0.00     0.065 A 
HETATM    6  C   UNL     1       5.648   9.334  23.090  0.00  0.00     0.020 A 
HETATM    7  N   UNL     1       5.776   9.563  20.926  0.00  0.00    -0.277 N 
HETATM    8  H   UNL     1       5.685   9.448  19.919  0.00  0.00     0.189 HD
HETATM    9  N   UNL     1       6.570  10.539  21.386  0.00  0.00    -0.178 NA
HETATM   10  C   UNL     1       6.488  10.440  22.726  0.00  0.00     0.071 A 
ENDROOT
BRANCH   1  11
HETATM   11  C   UNL     1       3.411   7.371  25.559  0.00  0.00     0.260 C 
HETATM   12  N   UNL     1       2.527   8.228  26.282  0.00  0.00    -0.318 N 
HETATM   13  C   UNL     1       2.295   9.604  25.838  0.00  0.00     0.159 C 
HETATM   14  O   UNL     1       3.594   6.179  25.833  0.00  0.00    -0.267 OA
BRANCH  12  15
HETATM   15  C   UNL     1       1.938   7.863  27.570  0.00  0.00     0.037 C 
HETATM   16  C   UNL     1       0.610   8.221  27.884  0.00  0.00     0.030 C 
HETATM   17  C   UNL     1       0.071   8.092  29.167  0.00  0.00     0.009 C 
HETATM   18  C   UNL     1       0.833   7.555  30.194  0.00  0.00    -0.062 C 
HETATM   19  C   UNL     1       0.302   7.533  31.594  0.00  0.00     0.048 C 
HETATM   20  C   UNL     1       2.100   7.059  29.884  0.00  0.00     0.009 C 
HETATM   21  C   UNL     1       2.642   7.210  28.590  0.00  0.00     0.030 C 
ENDBRANCH  12  15
ENDBRANCH   1  11
BRANCH   3  22
HETATM   22  O   UNL     1       2.675   6.410  22.913  0.00  0.00    -0.360 OA
HETATM   23  H   UNL     1       2.478   6.053  23.809  0.00  0.00     0.217 HD
ENDBRANCH   3  22
BRANCH  10  24
HETATM   24  C   UNL     1       7.237  11.451  23.575  0.00  0.00     0.100 C 
BRANCH  24  25
HETATM   25  C   UNL     1       6.367  12.660  23.922  0.00  0.00    -0.052 C 
HETATM   26  C   UNL     1       6.896  13.857  24.424  0.00  0.00     0.007 C 
HETATM   27  C   UNL     1       6.076  14.955  24.695  0.00  0.00     0.001 C 
HETATM   28  C   UNL     1       4.695  14.846  24.587  0.00  0.00     0.007 C 
HETATM   29  C   UNL     1       4.114  13.624  24.241  0.00  0.00    -0.061 C 
HETATM   30  C   UNL     1       4.954  12.553  23.862  0.00  0.00     0.014 C 
HETATM   31  C   UNL     1       2.615  13.497  24.299  0.00  0.00     0.048 C 
ENDBRANCH  24  25
ENDBRANCH  10  24
TORSDOF 5
ENDMDL
MODEL 4
REMARK minimizedAffinity -8.75197411
REMARK minimizedRMSD -1
REMARK  5 active torsions:
REMARK  status: ('A' for Active; 'I' for Inactive)
REMARK    1  A    between atoms: C_7  and  N_8 
REMARK       I    between atoms: N_8  and  C_10 
REMARK    2  A    between atoms: C_10  and  C_12 
REMARK    3  A    between atoms: C_14  and  O_15 
REMARK    4  A    between atoms: C_22  and  C_23 
REMARK    5  A    between atoms: C_23  and  C_24 
ROOT
HETATM    1  C   UNL     1       2.710   9.534  24.774  0.00  0.00     0.066 C 
HETATM    2  C   UNL     1       1.777   9.464  25.832  0.00  0.00     0.035 C 
HETATM    3  C   UNL     1       2.575   8.595  23.728  0.00  0.00     0.083 C 
HETATM    4  C   UNL     1       1.630   7.560  23.770  0.00  0.00     0.069 C 
HETATM    5  C   UNL     1       0.865   7.437  24.933  0.00  0.00     0.065 A 
HETATM    6  C   UNL     1       0.935   8.339  25.984  0.00  0.00     0.020 A 
HETATM    7  N   UNL     1      -0.069   6.522  25.317  0.00  0.00    -0.277 N 
HETATM    8  H   UNL     1      -0.416   5.733  24.774  0.00  0.00     0.189 HD
HETATM    9  N   UNL     1      -0.526   6.685  26.565  0.00  0.00    -0.178 NA
HETATM   10  C   UNL     1       0.101   7.788  27.015  0.00  0.00     0.071 A 
ENDROOT
BRANCH   1  11
HETATM   11  C   UNL     1       3.852  10.537  24.717  0.00  0.00     0.260 C 
HETATM   12  N   UNL     1       3.622  11.941  24.590  0.00  0.00    -0.318 N 
HETATM   13  C   UNL     1       2.259  12.466  24.484  0.00  0.00     0.159 C 
HETATM   14  O   UNL     1       4.969  10.034  24.886  0.00  0.00    -0.267 OA
BRANCH  12  15
HETATM   15  C   UNL     1       4.699  12.911  24.395  0.00  0.00     0.037 C 
HETATM   16  C   UNL     1       5.936  12.515  23.845  0.00  0.00     0.030 C 
HETATM   17  C   UNL     1       7.063  13.341  23.837  0.00  0.00     0.009 C 
HETATM   18  C   UNL     1       6.990  14.629  24.347  0.00  0.00    -0.062 C 
HETATM   19  C   UNL     1       8.226  15.469  24.454  0.00  0.00     0.048 C 
HETATM   20  C   UNL     1       5.746  15.101  24.765  0.00  0.00     0.009 C 
HETATM   21  C   UNL     1       4.617  14.254  24.787  0.00  0.00     0.030 C 
ENDBRANCH  12  15
ENDBRANCH   1  11
BRANCH   3  22
HETATM   22  O   UNL     1       3.345   8.620  22.588  0.00  0.00    -0.360 OA
HETATM   23  H   UNL     1       3.872   9.452  22.598  0.00  0.00     0.217 HD
ENDBRANCH   3  22
BRANCH  10  24
HETATM   24  C   UNL     1      -0.151   8.234  28.443  0.00  0.00     0.100 C 
BRANCH  24  25
HETATM   25  C   UNL     1       0.782   7.533  29.432  0.00  0.00    -0.052 C 
HETATM   26  C   UNL     1       2.150   7.348  29.186  0.00  0.00     0.007 C 
HETATM   27  C   UNL     1       2.979   6.737  30.128  0.00  0.00     0.001 C 
HETATM   28  C   UNL     1       2.444   6.185  31.286  0.00  0.00     0.007 C 
HETATM   29  C   UNL     1       1.063   6.206  31.498  0.00  0.00    -0.061 C 
HETATM   30  C   UNL     1       0.247   6.923  30.596  0.00  0.00     0.014 C 
HETATM   31  C   UNL     1       0.504   5.453  32.675  0.00  0.00     0.048 C 
ENDBRANCH  24  25
ENDBRANCH  10  24
TORSDOF 5
ENDMDL
MODEL 5
REMARK minimizedAffinity -8.54367828
REMARK minimizedRMSD -1
REMARK  5 active torsions:
REMARK  status: ('A' for Active; 'I' for Inactive)
REMARK    1  A    between atoms: C_7  and  N_8 
REMARK       I    between atoms: N_8  and  C_10 
REMARK    2  A    between atoms: C_10  and  C_12 
REMARK    3  A    between atoms: C_14  and  O_15 
REMARK    4  A    between atoms: C_22  and  C_23 
REMARK    5  A    between atoms: C_23  and  C_24 
ROOT
HETATM    1  C   UNL     1       0.026  10.341  25.921  0.00  0.00     0.066 C 
HETATM    2  C   UNL     1       1.130  10.596  25.078  0.00  0.00     0.035 C 
HETATM    3  C   UNL     1      -1.230  10.840  25.511  0.00  0.00     0.083 C 
HETATM    4  C   UNL     1      -1.379  11.650  24.376  0.00  0.00     0.069 C 
HETATM    5  C   UNL     1      -0.216  12.018  23.694  0.00  0.00     0.065 A 
HETATM    6  C   UNL     1       1.042  11.544  24.033  0.00  0.00     0.020 A 
HETATM    7  N   UNL     1      -0.007  12.832  22.622  0.00  0.00    -0.277 N 
HETATM    8  H   UNL     1      -0.713  13.323  22.077  0.00  0.00     0.189 HD
HETATM    9  N   UNL     1       1.281  13.018  22.307  0.00  0.00    -0.178 NA
HETATM   10  C   UNL     1       1.958  12.253  23.185  0.00  0.00     0.071 A 
ENDROOT
BRANCH   1  11
HETATM   11  C   UNL     1       0.121   9.589  27.240  0.00  0.00     0.260 C 
HETATM   12  N   UNL     1       1.176   8.664  27.510  0.00  0.00    -0.318 N 
HETATM   13  C   UNL     1       2.200   8.386  26.501  0.00  0.00     0.159 C 
HETATM   14  O   UNL     1      -0.730   9.927  28.071  0.00  0.00    -0.267 OA
BRANCH  12  15
HETATM   15  C   UNL     1       1.215   7.829  28.710  0.00  0.00     0.037 C 
HETATM   16  C   UNL     1       0.044   7.582  29.456  0.00  0.00     0.030 C 
HETATM   17  C   UNL     1       0.059   6.979  30.717  0.00  0.00     0.009 C 
HETATM   18  C   UNL     1       1.255   6.555  31.275  0.00  0.00    -0.062 C 
HETATM   19  C   UNL     1       1.289   6.025  32.675  0.00  0.00     0.048 C 
HETATM   20  C   UNL     1       2.413   6.653  30.502  0.00  0.00     0.009 C 
HETATM   21  C   UNL     1       2.392   7.281  29.238  0.00  0.00     0.030 C 
ENDBRANCH  12  15
ENDBRANCH   1  11
BRANCH   3  22
HETATM   22  O   UNL     1      -2.403  10.571  26.178  0.00  0.00    -0.360 OA
HETATM   23  H   UNL     1      -2.210   9.894  26.867  0.00  0.00     0.217 HD
ENDBRANCH   3  22
BRANCH  10  24
HETATM   24  C   UNL     1       3.475  12.271  23.144  0.00  0.00     0.100 C 
BRANCH  24  25
HETATM   25  C   UNL     1       4.056  13.371  24.034  0.00  0.00    -0.052 C 
HETATM   26  C   UNL     1       3.259  14.323  24.684  0.00  0.00     0.007 C 
HETATM   27  C   UNL     1       3.822  15.291  25.519  0.00  0.00     0.001 C 
HETATM   28  C   UNL     1       5.202  15.409  25.631  0.00  0.00     0.007 C 
HETATM   29  C   UNL     1       6.039  14.582  24.877  0.00  0.00    -0.061 C 
HETATM   30  C   UNL     1       5.463  13.536  24.123  0.00  0.00     0.014 C 
HETATM   31  C   UNL     1       7.520  14.850  24.893  0.00  0.00     0.048 C 
ENDBRANCH  24  25
ENDBRANCH  10  24
TORSDOF 5
ENDMDL
MODEL 6
REMARK minimizedAffinity -8.37375355
REMARK minimizedRMSD -1
REMARK  5 active torsions:
REMARK  status: ('A' for Active; 'I' for Inactive)
REMARK    1  A    between atoms: C_7  and  N_8 
REMARK       I    between atoms: N_8  and  C_10 
REMARK    2  A    between atoms: C_10  and  C_12 
REMARK    3  A    between atoms: C_14  and  O_15 
REMARK    4  A    between atoms: C_22  and  C_23 
REMARK    5  A    between atoms: C_23  and  C_24 
ROOT
HETATM    1  C   UNL     1       2.674  10.283  24.293  0.00  0.00     0.066 C 
HETATM    2  C   UNL     1       3.151  11.571  23.960  0.00  0.00     0.035 C 
HETATM    3  C   UNL     1       1.289  10.147  24.534  0.00  0.00     0.083 C 
HETATM    4  C   UNL     1       0.422  11.249  24.555  0.00  0.00     0.069 C 
HETATM    5  C   UNL     1       0.993  12.516  24.404  0.00  0.00     0.065 A 
HETATM    6  C   UNL     1       2.340  12.714  24.143  0.00  0.00     0.020 A 
HETATM    7  N   UNL     1       0.456  13.768  24.445  0.00  0.00    -0.277 N 
HETATM    8  H   UNL     1      -0.525  14.012  24.573  0.00  0.00     0.189 HD
HETATM    9  N   UNL     1       1.350  14.760  24.348  0.00  0.00    -0.178 NA
HETATM   10  C   UNL     1       2.533  14.136  24.188  0.00  0.00     0.071 A 
ENDROOT
BRANCH   1  11
HETATM   11  C   UNL     1       3.566   9.058  24.427  0.00  0.00     0.260 C 
HETATM   12  N   UNL     1       4.515   8.697  23.422  0.00  0.00    -0.318 N 
HETATM   13  C   UNL     1       4.644   9.492  22.200  0.00  0.00     0.159 C 
HETATM   14  O   UNL     1       3.458   8.477  25.514  0.00  0.00    -0.267 OA
BRANCH  12  15
HETATM   15  C   UNL     1       5.284   7.454  23.462  0.00  0.00     0.037 C 
HETATM   16  C   UNL     1       6.639   7.455  23.852  0.00  0.00     0.030 C 
HETATM   17  C   UNL     1       7.475   6.345  23.701  0.00  0.00     0.009 C 
HETATM   18  C   UNL     1       6.975   5.159  23.186  0.00  0.00    -0.062 C 
HETATM   19  C   UNL     1       7.896   4.011  22.907  0.00  0.00     0.048 C 
HETATM   20  C   UNL     1       5.607   5.080  22.925  0.00  0.00     0.009 C 
HETATM   21  C   UNL     1       4.774   6.211  23.062  0.00  0.00     0.030 C 
ENDBRANCH  12  15
ENDBRANCH   1  11
BRANCH   3  22
HETATM   22  O   UNL     1       0.678   8.935  24.758  0.00  0.00    -0.360 OA
HETATM   23  H   UNL     1       1.341   8.227  24.589  0.00  0.00     0.217 HD
ENDBRANCH   3  22
BRANCH  10  24
HETATM   24  C   UNL     1       3.791  14.979  24.099  0.00  0.00     0.100 C 
BRANCH  24  25
HETATM   25  C   UNL     1       4.816  14.588  25.164  0.00  0.00    -0.052 C 
HETATM   26  C   UNL     1       4.452  14.119  26.434  0.00  0.00     0.007 C 
HETATM   27  C   UNL     1       5.415  13.736  27.369  0.00  0.00     0.001 C 
HETATM   28  C   UNL     1       6.767  13.925  27.106  0.00  0.00     0.007 C 
HETATM   29  C   UNL     1       7.170  14.536  25.916  0.00  0.00    -0.061 C 
HETATM   30  C   UNL     1       6.197  14.817  24.932  0.00  0.00     0.014 C 
HETATM   31  C   UNL     1       8.625  14.878  25.739  0.00  0.00     0.048 C 
ENDBRANCH  24  25
ENDBRANCH  10  24
TORSDOF 5
ENDMDL
MODEL 7
REMARK minimizedAffinity -8.26337528
REMARK minimizedRMSD -1
REMARK  5 active torsions:
REMARK  status: ('A' for Active; 'I' for Inactive)
REMARK    1  A    between atoms: C_7  and  N_8 
REMARK       I    between atoms: N_8  and  C_10 
REMARK    2  A    between atoms: C_10  and  C_12 
REMARK    3  A    between atoms: C_14  and  O_15 
REMARK    4  A    between atoms: C_22  and  C_23 
REMARK    5  A    between atoms: C_23  and  C_24 
ROOT
HETATM    1  C   UNL     1       0.717  13.072  24.017  0.00  0.00     0.066 C 
HETATM    2  C   UNL     1       0.125  12.560  25.193  0.00  0.00     0.035 C 
HETATM    3  C   UNL     1      -0.014  12.945  22.816  0.00  0.00     0.083 C 
HETATM    4  C   UNL     1      -1.228  12.246  22.749  0.00  0.00     0.069 C 
HETATM    5  C   UNL     1      -1.661  11.603  23.911  0.00  0.00     0.065 A 
HETATM    6  C   UNL     1      -1.001  11.708  25.126  0.00  0.00     0.020 A 
HETATM    7  N   UNL     1      -2.734  10.800  24.163  0.00  0.00    -0.277 N 
HETATM    8  H   UNL     1      -3.470  10.537  23.511  0.00  0.00     0.189 HD
HETATM    9  N   UNL     1      -2.765  10.286  25.399  0.00  0.00    -0.178 NA
HETATM   10  C   UNL     1      -1.686  10.809  26.012  0.00  0.00     0.071 A 
ENDROOT
BRANCH   1  11
HETATM   11  C   UNL     1       2.091  13.724  23.975  0.00  0.00     0.260 C 
HETATM   12  N   UNL     1       3.290  12.981  24.204  0.00  0.00    -0.318 N 
HETATM   13  C   UNL     1       3.232  11.552  24.518  0.00  0.00     0.159 C 
HETATM   14  O   UNL     1       2.071  14.912  23.632  0.00  0.00    -0.267 OA
BRANCH  12  15
HETATM   15  C   UNL     1       4.608  13.607  24.306  0.00  0.00     0.037 C 
HETATM   16  C   UNL     1       5.769  12.909  23.915  0.00  0.00     0.030 C 
HETATM   17  C   UNL     1       7.061  13.368  24.189  0.00  0.00     0.009 C 
HETATM   18  C   UNL     1       7.249  14.579  24.839  0.00  0.00    -0.062 C 
HETATM   19  C   UNL     1       8.623  15.011  25.245  0.00  0.00     0.048 C 
HETATM   20  C   UNL     1       6.125  15.361  25.110  0.00  0.00     0.009 C 
HETATM   21  C   UNL     1       4.824  14.881  24.846  0.00  0.00     0.030 C 
ENDBRANCH  12  15
ENDBRANCH   1  11
BRANCH   3  22
HETATM   22  O   UNL     1       0.394  13.496  21.623  0.00  0.00    -0.360 OA
HETATM   23  H   UNL     1       1.173  14.071  21.806  0.00  0.00     0.217 HD
ENDBRANCH   3  22
BRANCH  10  24
HETATM   24  C   UNL     1      -1.385  10.384  27.437  0.00  0.00     0.100 C 
BRANCH  24  25
HETATM   25  C   UNL     1      -0.199   9.421  27.506  0.00  0.00    -0.052 C 
HETATM   26  C   UNL     1       0.515   9.011  26.371  0.00  0.00     0.007 C 
HETATM   27  C   UNL     1       1.616   8.159  26.476  0.00  0.00     0.001 C 
HETATM   28  C   UNL     1       1.958   7.597  27.700  0.00  0.00     0.007 C 
HETATM   29  C   UNL     1       1.178   7.854  28.831  0.00  0.00    -0.061 C 
HETATM   30  C   UNL     1       0.136   8.802  28.738  0.00  0.00     0.014 C 
HETATM   31  C   UNL     1       1.477   7.098  30.098  0.00  0.00     0.048 C 
ENDBRANCH  24  25
ENDBRANCH  10  24
TORSDOF 5
ENDMDL
MODEL 8
REMARK minimizedAffinity -7.9565959
REMARK minimizedRMSD -1
REMARK  5 active torsions:
REMARK  status: ('A' for Active; 'I' for Inactive)
REMARK    1  A    between atoms: C_7  and  N_8 
REMARK       I    between atoms: N_8  and  C_10 
REMARK    2  A    between atoms: C_10  and  C_12 
REMARK    3  A    between atoms: C_14  and  O_15 
REMARK    4  A    between atoms: C_22  and  C_23 
REMARK    5  A    between atoms: C_23  and  C_24 
ROOT
HETATM    1  C   UNL     1       1.556   8.107  25.281  0.00  0.00     0.066 C 
HETATM    2  C   UNL     1       1.421   9.221  24.423  0.00  0.00     0.035 C 
HETATM    3  C   UNL     1       0.719   8.060  26.417  0.00  0.00     0.083 C 
HETATM    4  C   UNL     1      -0.140   9.115  26.758  0.00  0.00     0.069 C 
HETATM    5  C   UNL     1      -0.085  10.266  25.968  0.00  0.00     0.065 A 
HETATM    6  C   UNL     1       0.698  10.366  24.829  0.00  0.00     0.020 A 
HETATM    7  N   UNL     1      -0.719  11.469  26.065  0.00  0.00    -0.277 N 
HETATM    8  H   UNL     1      -1.412  11.744  26.759  0.00  0.00     0.189 HD
HETATM    9  N   UNL     1      -0.333  12.375  25.158  0.00  0.00    -0.178 NA
HETATM   10  C   UNL     1       0.568  11.729  24.395  0.00  0.00     0.071 A 
ENDROOT
BRANCH   1  11
HETATM   11  C   UNL     1       2.559   6.985  25.061  0.00  0.00     0.260 C 
HETATM   12  N   UNL     1       3.907   7.239  24.665  0.00  0.00    -0.318 N 
HETATM   13  C   UNL     1       4.368   8.609  24.428  0.00  0.00     0.159 C 
HETATM   14  O   UNL     1       2.125   5.863  25.350  0.00  0.00    -0.267 OA
BRANCH  12  15
HETATM   15  C   UNL     1       4.849   6.177  24.314  0.00  0.00     0.037 C 
HETATM   16  C   UNL     1       6.232   6.439  24.228  0.00  0.00     0.030 C 
HETATM   17  C   UNL     1       7.147   5.527  23.691  0.00  0.00     0.009 C 
HETATM   18  C   UNL     1       6.717   4.285  23.249  0.00  0.00    -0.062 C 
HETATM   19  C   UNL     1       7.671   3.359  22.559  0.00  0.00     0.048 C 
HETATM   20  C   UNL     1       5.380   3.940  23.453  0.00  0.00     0.009 C 
HETATM   21  C   UNL     1       4.461   4.873  23.978  0.00  0.00     0.030 C 
ENDBRANCH  12  15
ENDBRANCH   1  11
BRANCH   3  22
HETATM   22  O   UNL     1       0.669   6.984  27.273  0.00  0.00    -0.360 OA
HETATM   23  H   UNL     1       1.199   6.255  26.874  0.00  0.00     0.217 HD
ENDBRANCH   3  22
BRANCH  10  24
HETATM   24  C   UNL     1       1.260  12.495  23.283  0.00  0.00     0.100 C 
BRANCH  24  25
HETATM   25  C   UNL     1       2.660  12.956  23.692  0.00  0.00    -0.052 C 
HETATM   26  C   UNL     1       3.796  12.146  23.554  0.00  0.00     0.007 C 
HETATM   27  C   UNL     1       5.065  12.613  23.904  0.00  0.00     0.001 C 
HETATM   28  C   UNL     1       5.216  13.853  24.514  0.00  0.00     0.007 C 
HETATM   29  C   UNL     1       4.093  14.627  24.815  0.00  0.00    -0.061 C 
HETATM   30  C   UNL     1       2.828  14.197  24.358  0.00  0.00     0.014 C 
HETATM   31  C   UNL     1       4.279  15.882  25.624  0.00  0.00     0.048 C 
ENDBRANCH  24  25
ENDBRANCH  10  24
TORSDOF 5
ENDMDL
MODEL 9
REMARK minimizedAffinity -7.7495389
REMARK minimizedRMSD -1
REMARK  5 active torsions:
REMARK  status: ('A' for Active; 'I' for Inactive)
REMARK    1  A    between atoms: C_7  and  N_8 
REMARK       I    between atoms: N_8  and  C_10 
REMARK    2  A    between atoms: C_10  and  C_12 
REMARK    3  A    between atoms: C_14  and  O_15 
REMARK    4  A    between atoms: C_22  and  C_23 
REMARK    5  A    between atoms: C_23  and  C_24 
ROOT
HETATM    1  C   UNL     1       5.949   8.301  23.667  0.00  0.00     0.066 C 
HETATM    2  C   UNL     1       5.147   7.329  23.029  0.00  0.00     0.035 C 
HETATM    3  C   UNL     1       7.274   7.935  23.991  0.00  0.00     0.083 C 
HETATM    4  C   UNL     1       7.760   6.634  23.798  0.00  0.00     0.069 C 
HETATM    5  C   UNL     1       6.854   5.674  23.338  0.00  0.00     0.065 A 
HETATM    6  C   UNL     1       5.548   5.974  22.981  0.00  0.00     0.020 A 
HETATM    7  N   UNL     1       6.979   4.335  23.117  0.00  0.00    -0.277 N 
HETATM    8  H   UNL     1       7.819   3.770  23.227  0.00  0.00     0.189 HD
HETATM    9  N   UNL     1       5.844   3.723  22.758  0.00  0.00    -0.178 NA
HETATM   10  C   UNL     1       4.931   4.710  22.694  0.00  0.00     0.071 A 
ENDROOT
BRANCH   1  11
HETATM   11  C   UNL     1       5.461   9.693  24.038  0.00  0.00     0.260 C 
HETATM   12  N   UNL     1       5.775  10.842  23.250  0.00  0.00    -0.318 N 
HETATM   13  C   UNL     1       6.613  10.720  22.055  0.00  0.00     0.159 C 
HETATM   14  O   UNL     1       4.699   9.712  25.012  0.00  0.00    -0.267 OA
BRANCH  12  15
HETATM   15  C   UNL     1       5.435  12.205  23.657  0.00  0.00     0.037 C 
HETATM   16  C   UNL     1       6.440  13.111  24.055  0.00  0.00     0.030 C 
HETATM   17  C   UNL     1       6.160  14.342  24.655  0.00  0.00     0.009 C 
HETATM   18  C   UNL     1       4.847  14.742  24.849  0.00  0.00    -0.062 C 
HETATM   19  C   UNL     1       4.545  15.999  25.604  0.00  0.00     0.048 C 
HETATM   20  C   UNL     1       3.830  13.934  24.336  0.00  0.00     0.009 C 
HETATM   21  C   UNL     1       4.122  12.685  23.749  0.00  0.00     0.030 C 
ENDBRANCH  12  15
ENDBRANCH   1  11
BRANCH   3  22
HETATM   22  O   UNL     1       8.194   8.816  24.512  0.00  0.00    -0.360 OA
HETATM   23  H   UNL     1       7.800   9.718  24.480  0.00  0.00     0.217 HD
ENDBRANCH   3  22
BRANCH  10  24
HETATM   24  C   UNL     1       3.495   4.351  22.361  0.00  0.00     0.100 C 
BRANCH  24  25
HETATM   25  C   UNL     1       3.228   4.404  20.855  0.00  0.00    -0.052 C 
HETATM   26  C   UNL     1       2.933   3.264  20.095  0.00  0.00     0.007 C 
HETATM   27  C   UNL     1       2.658   3.355  18.729  0.00  0.00     0.001 C 
HETATM   28  C   UNL     1       2.790   4.568  18.063  0.00  0.00     0.007 C 
HETATM   29  C   UNL     1       3.236   5.699  18.751  0.00  0.00    -0.061 C 
HETATM   30  C   UNL     1       3.403   5.623  20.151  0.00  0.00     0.014 C 
HETATM   31  C   UNL     1       3.529   6.950  17.966  0.00  0.00     0.048 C 
ENDBRANCH  24  25
ENDBRANCH  10  24
TORSDOF 5
ENDMDL
