MODEL 1
REMARK VINA RESULT:    -6.648      0.000      0.000
REMARK INTER + INTRA:          -8.802
REMARK INTER:                  -7.911
REMARK INTRA:                  -0.891
REMARK UNBOUND:                -0.988
REMARK  4 active torsions:
REMARK  status: ('A' for Active; 'I' for Inactive)
REMARK    1  A    between atoms: C_6  and  C_7 
REMARK    2  A    between atoms: C_10  and  O_11 
REMARK    3  A    between atoms: C_13  and  O_14 
REMARK    4  A    between atoms: N_15  and  C_16 
ROOT
HETATM    1  O   UNL     1      -3.824  10.563  23.437  0.00  0.00    -0.245 OA
HETATM    2  C   UNL     1      -2.635  10.815  23.310  0.00  0.00     0.349 A 
HETATM    3  N   UNL     1      -1.607   9.959  23.663  0.00  0.00    -0.226 N 
HETATM    4  H   UNL     1      -1.721   9.021  24.022  0.00  0.00     0.194 HD
HETATM    5  N   UNL     1      -0.404  10.470  23.290  0.00  0.00    -0.151 NA
HETATM    6  C   UNL     1      -0.681  11.635  22.753  0.00  0.00     0.172 A 
HETATM    7  N   UNL     1      -2.024  11.918  22.741  0.00  0.00    -0.243 N 
ENDROOT
BRANCH   6   8
HETATM    8  C   UNL     1       0.421  12.504  22.263  0.00  0.00     0.045 A 
HETATM    9  C   UNL     1       0.654  12.479  20.872  0.00  0.00     0.021 A 
HETATM   10  C   UNL     1       1.661  13.252  20.289  0.00  0.00     0.037 A 
HETATM   11  C   UNL     1       2.438  14.068  21.099  0.00  0.00     0.068 A 
HETATM   12  C   UNL     1       2.246  14.096  22.475  0.00  0.00     0.074 A 
HETATM   13  C   UNL     1       1.266  13.283  23.060  0.00  0.00     0.082 A 
BRANCH  11  14
HETATM   14  O   UNL     1       3.428  14.847  20.578  0.00  0.00    -0.361 OA
HETATM   15  H   UNL     1       4.210  14.784  21.151  0.00  0.00     0.217 HD
ENDBRANCH  11  14
BRANCH  13  16
HETATM   16  O   UNL     1       1.200  13.228  24.422  0.00  0.00    -0.360 OA
HETATM   17  H   UNL     1       1.233  12.299  24.709  0.00  0.00     0.217 HD
ENDBRANCH  13  16
ENDBRANCH   6   8
BRANCH   7  18
HETATM   18  C   UNL     1      -2.794  12.926  22.126  0.00  0.00     0.067 A 
HETATM   19  C   UNL     1      -2.839  12.931  20.718  0.00  0.00     0.032 A 
HETATM   20  C   UNL     1      -3.512  13.934  20.016  0.00  0.00     0.002 A 
HETATM   21  C   UNL     1      -4.137  14.959  20.711  0.00  0.00     0.002 A 
HETATM   22  C   UNL     1      -4.102  14.976  22.106  0.00  0.00     0.026 A 
HETATM   23  C   UNL     1      -3.433  13.970  22.819  0.00  0.00     0.061 A 
HETATM   24 CL   UNL     1      -3.315  14.170  24.530  0.00  0.00    -0.082 Cl
ENDBRANCH   7  18
TORSDOF 4
ENDMDL
MODEL 2
REMARK VINA RESULT:    -6.556      2.783      5.539
REMARK INTER + INTRA:          -8.694
REMARK INTER:                  -7.804
REMARK INTRA:                  -0.891
REMARK UNBOUND:                -0.988
REMARK  4 active torsions:
REMARK  status: ('A' for Active; 'I' for Inactive)
REMARK    1  A    between atoms: C_6  and  C_7 
REMARK    2  A    between atoms: C_10  and  O_11 
REMARK    3  A    between atoms: C_13  and  O_14 
REMARK    4  A    between atoms: N_15  and  C_16 
ROOT
HETATM    1  O   UNL     1      -1.979  14.060  20.662  0.00  0.00    -0.245 OA
HETATM    2  C   UNL     1      -2.446  13.428  21.599  0.00  0.00     0.349 A 
HETATM    3  N   UNL     1      -3.585  12.645  21.529  0.00  0.00    -0.226 N 
HETATM    4  H   UNL     1      -4.130  12.475  20.695  0.00  0.00     0.194 HD
HETATM    5  N   UNL     1      -3.782  11.975  22.695  0.00  0.00    -0.151 NA
HETATM    6  C   UNL     1      -2.806  12.366  23.481  0.00  0.00     0.172 A 
HETATM    7  N   UNL     1      -1.956  13.262  22.882  0.00  0.00    -0.243 N 
ENDROOT
BRANCH   6   8
HETATM    8  C   UNL     1      -2.730  11.855  24.875  0.00  0.00     0.045 A 
HETATM    9  C   UNL     1      -1.583  11.098  25.194  0.00  0.00     0.021 A 
HETATM   10  C   UNL     1      -1.395  10.564  26.471  0.00  0.00     0.037 A 
HETATM   11  C   UNL     1      -2.354  10.796  27.445  0.00  0.00     0.068 A 
HETATM   12  C   UNL     1      -3.505  11.519  27.155  0.00  0.00     0.074 A 
HETATM   13  C   UNL     1      -3.712  12.012  25.859  0.00  0.00     0.082 A 
BRANCH  11  14
HETATM   14  O   UNL     1      -2.215  10.304  28.709  0.00  0.00    -0.361 OA
HETATM   15  H   UNL     1      -1.662  10.915  29.223  0.00  0.00     0.217 HD
ENDBRANCH  11  14
BRANCH  13  16
HETATM   16  O   UNL     1      -4.913  12.593  25.571  0.00  0.00    -0.360 OA
HETATM   17  H   UNL     1      -5.310  12.148  24.802  0.00  0.00     0.217 HD
ENDBRANCH  13  16
ENDBRANCH   6   8
BRANCH   7  18
HETATM   18  C   UNL     1      -0.707  13.803  23.248  0.00  0.00     0.067 A 
HETATM   19  C   UNL     1       0.428  13.314  22.571  0.00  0.00     0.032 A 
HETATM   20  C   UNL     1       1.715  13.733  22.915  0.00  0.00     0.002 A 
HETATM   21  C   UNL     1       1.890  14.635  23.955  0.00  0.00     0.002 A 
HETATM   22  C   UNL     1       0.780  15.129  24.641  0.00  0.00     0.026 A 
HETATM   23  C   UNL     1      -0.517  14.718  24.298  0.00  0.00     0.061 A 
HETATM   24 CL   UNL     1      -1.804  15.267  25.310  0.00  0.00    -0.082 Cl
ENDBRANCH   7  18
TORSDOF 4
ENDMDL
MODEL 3
REMARK VINA RESULT:    -6.437      2.910      5.103
REMARK INTER + INTRA:          -8.554
REMARK INTER:                  -7.572
REMARK INTRA:                  -0.982
REMARK UNBOUND:                -0.988
REMARK  4 active torsions:
REMARK  status: ('A' for Active; 'I' for Inactive)
REMARK    1  A    between atoms: C_6  and  C_7 
REMARK    2  A    between atoms: C_10  and  O_11 
REMARK    3  A    between atoms: C_13  and  O_14 
REMARK    4  A    between atoms: N_15  and  C_16 
ROOT
HETATM    1  O   UNL     1      -1.870  11.278  26.968  0.00  0.00    -0.245 OA
HETATM    2  C   UNL     1      -2.533  11.557  25.979  0.00  0.00     0.349 A 
HETATM    3  N   UNL     1      -3.869  11.242  25.813  0.00  0.00    -0.226 N 
HETATM    4  H   UNL     1      -4.455  10.788  26.500  0.00  0.00     0.194 HD
HETATM    5  N   UNL     1      -4.355  11.790  24.668  0.00  0.00    -0.151 NA
HETATM    6  C   UNL     1      -3.329  12.397  24.120  0.00  0.00     0.172 A 
HETATM    7  N   UNL     1      -2.178  12.289  24.859  0.00  0.00    -0.243 N 
ENDROOT
BRANCH   6   8
HETATM    8  C   UNL     1      -3.490  13.083  22.810  0.00  0.00     0.045 A 
HETATM    9  C   UNL     1      -4.113  14.348  22.848  0.00  0.00     0.021 A 
HETATM   10  C   UNL     1      -4.321  15.092  21.684  0.00  0.00     0.037 A 
HETATM   11  C   UNL     1      -3.892  14.576  20.470  0.00  0.00     0.068 A 
HETATM   12  C   UNL     1      -3.295  13.323  20.399  0.00  0.00     0.074 A 
HETATM   13  C   UNL     1      -3.132  12.560  21.562  0.00  0.00     0.082 A 
BRANCH  11  14
HETATM   14  O   UNL     1      -4.064  15.266  19.307  0.00  0.00    -0.361 OA
HETATM   15  H   UNL     1      -4.440  16.138  19.513  0.00  0.00     0.217 HD
ENDBRANCH  11  14
BRANCH  13  16
HETATM   16  O   UNL     1      -2.674  11.280  21.439  0.00  0.00    -0.360 OA
HETATM   17  H   UNL     1      -2.859  10.791  22.260  0.00  0.00     0.217 HD
ENDBRANCH  13  16
ENDBRANCH   6   8
BRANCH   7  18
HETATM   18  C   UNL     1      -0.914  12.905  24.776  0.00  0.00     0.067 A 
HETATM   19  C   UNL     1      -0.818  14.239  25.221  0.00  0.00     0.032 A 
HETATM   20  C   UNL     1       0.373  14.959  25.109  0.00  0.00     0.002 A 
HETATM   21  C   UNL     1       1.486  14.363  24.533  0.00  0.00     0.002 A 
HETATM   22  C   UNL     1       1.412  13.043  24.082  0.00  0.00     0.026 A 
HETATM   23  C   UNL     1       0.221  12.311  24.197  0.00  0.00     0.061 A 
HETATM   24 CL   UNL     1       0.192  10.747  23.467  0.00  0.00    -0.082 Cl
ENDBRANCH   7  18
TORSDOF 4
ENDMDL
MODEL 4
REMARK VINA RESULT:    -6.429      2.442      4.731
REMARK INTER + INTRA:          -8.545
REMARK INTER:                  -7.534
REMARK INTRA:                  -1.012
REMARK UNBOUND:                -0.988
REMARK  4 active torsions:
REMARK  status: ('A' for Active; 'I' for Inactive)
REMARK    1  A    between atoms: C_6  and  C_7 
REMARK    2  A    between atoms: C_10  and  O_11 
REMARK    3  A    between atoms: C_13  and  O_14 
REMARK    4  A    between atoms: N_15  and  C_16 
ROOT
HETATM    1  O   UNL     1      -2.213  14.194  20.487  0.00  0.00    -0.245 OA
HETATM    2  C   UNL     1      -2.182  13.181  21.169  0.00  0.00     0.349 A 
HETATM    3  N   UNL     1      -3.036  12.103  21.017  0.00  0.00    -0.226 N 
HETATM    4  H   UNL     1      -3.747  12.014  20.304  0.00  0.00     0.194 HD
HETATM    5  N   UNL     1      -2.676  11.082  21.839  0.00  0.00    -0.151 NA
HETATM    6  C   UNL     1      -1.645  11.535  22.512  0.00  0.00     0.172 A 
HETATM    7  N   UNL     1      -1.293  12.815  22.164  0.00  0.00    -0.243 N 
ENDROOT
BRANCH   6   8
HETATM    8  C   UNL     1      -1.008  10.683  23.550  0.00  0.00     0.045 A 
HETATM    9  C   UNL     1       0.267  10.170  23.231  0.00  0.00     0.021 A 
HETATM   10  C   UNL     1       0.969   9.356  24.124  0.00  0.00     0.037 A 
HETATM   11  C   UNL     1       0.400   9.060  25.354  0.00  0.00     0.068 A 
HETATM   12  C   UNL     1      -0.864   9.533  25.688  0.00  0.00     0.074 A 
HETATM   13  C   UNL     1      -1.584  10.309  24.769  0.00  0.00     0.082 A 
BRANCH  11  14
HETATM   14  O   UNL     1       1.047   8.278  26.263  0.00  0.00    -0.361 OA
HETATM   15  H   UNL     1       1.962   8.144  25.967  0.00  0.00     0.217 HD
ENDBRANCH  11  14
BRANCH  13  16
HETATM   16  O   UNL     1      -2.874  10.636  25.070  0.00  0.00    -0.360 OA
HETATM   17  H   UNL     1      -3.431  10.510  24.282  0.00  0.00     0.217 HD
ENDBRANCH  13  16
ENDBRANCH   6   8
BRANCH   7  18
HETATM   18  C   UNL     1      -0.182  13.629  22.467  0.00  0.00     0.067 A 
HETATM   19  C   UNL     1       0.990  13.422  21.714  0.00  0.00     0.032 A 
HETATM   20  C   UNL     1       2.165  14.125  21.990  0.00  0.00     0.002 A 
HETATM   21  C   UNL     1       2.192  15.035  23.037  0.00  0.00     0.002 A 
HETATM   22  C   UNL     1       1.042  15.253  23.799  0.00  0.00     0.026 A 
HETATM   23  C   UNL     1      -0.143  14.555  23.524  0.00  0.00     0.061 A 
HETATM   24 CL   UNL     1      -1.456  14.782  24.623  0.00  0.00    -0.082 Cl
ENDBRANCH   7  18
TORSDOF 4
ENDMDL
MODEL 5
REMARK VINA RESULT:    -6.403      2.879      5.428
REMARK INTER + INTRA:          -8.514
REMARK INTER:                  -7.637
REMARK INTRA:                  -0.878
REMARK UNBOUND:                -0.988
REMARK  4 active torsions:
REMARK  status: ('A' for Active; 'I' for Inactive)
REMARK    1  A    between atoms: C_6  and  C_7 
REMARK    2  A    between atoms: C_10  and  O_11 
REMARK    3  A    between atoms: C_13  and  O_14 
REMARK    4  A    between atoms: N_15  and  C_16 
ROOT
HETATM    1  O   UNL     1      -3.044  14.585  20.347  0.00  0.00    -0.245 OA
HETATM    2  C   UNL     1      -3.324  13.942  21.348  0.00  0.00     0.349 A 
HETATM    3  N   UNL     1      -4.573  13.413  21.619  0.00  0.00    -0.226 N 
HETATM    4  H   UNL     1      -5.376  13.461  21.008  0.00  0.00     0.194 HD
HETATM    5  N   UNL     1      -4.540  12.650  22.744  0.00  0.00    -0.151 NA
HETATM    6  C   UNL     1      -3.305  12.738  23.179  0.00  0.00     0.172 A 
HETATM    7  N   UNL     1      -2.507  13.520  22.382  0.00  0.00    -0.243 N 
ENDROOT
BRANCH   6   8
HETATM    8  C   UNL     1      -2.914  12.048  24.436  0.00  0.00     0.045 A 
HETATM    9  C   UNL     1      -1.732  11.280  24.376  0.00  0.00     0.021 A 
HETATM   10  C   UNL     1      -1.258  10.585  25.492  0.00  0.00     0.037 A 
HETATM   11  C   UNL     1      -1.963  10.665  26.684  0.00  0.00     0.068 A 
HETATM   12  C   UNL     1      -3.143  11.396  26.767  0.00  0.00     0.074 A 
HETATM   13  C   UNL     1      -3.639  12.052  25.633  0.00  0.00     0.082 A 
BRANCH  11  14
HETATM   14  O   UNL     1      -1.540  10.012  27.803  0.00  0.00    -0.361 OA
HETATM   15  H   UNL     1      -1.511  10.643  28.541  0.00  0.00     0.217 HD
ENDBRANCH  11  14
BRANCH  13  16
HETATM   16  O   UNL     1      -4.868  12.640  25.711  0.00  0.00    -0.360 OA
HETATM   17  H   UNL     1      -4.769  13.555  26.027  0.00  0.00     0.217 HD
ENDBRANCH  13  16
ENDBRANCH   6   8
BRANCH   7  18
HETATM   18  C   UNL     1      -1.118  13.755  22.339  0.00  0.00     0.067 A 
HETATM   19  C   UNL     1      -0.631  14.866  23.057  0.00  0.00     0.032 A 
HETATM   20  C   UNL     1       0.718  15.224  23.014  0.00  0.00     0.002 A 
HETATM   21  C   UNL     1       1.601  14.487  22.238  0.00  0.00     0.002 A 
HETATM   22  C   UNL     1       1.140  13.384  21.516  0.00  0.00     0.026 A 
HETATM   23  C   UNL     1      -0.213  13.014  21.559  0.00  0.00     0.061 A 
HETATM   24 CL   UNL     1      -0.706  11.736  20.509  0.00  0.00    -0.082 Cl
ENDBRANCH   7  18
TORSDOF 4
ENDMDL
MODEL 6
REMARK VINA RESULT:    -6.391      3.120      5.193
REMARK INTER + INTRA:          -8.501
REMARK INTER:                  -7.732
REMARK INTRA:                  -0.769
REMARK UNBOUND:                -0.988
REMARK  4 active torsions:
REMARK  status: ('A' for Active; 'I' for Inactive)
REMARK    1  A    between atoms: C_6  and  C_7 
REMARK    2  A    between atoms: C_10  and  O_11 
REMARK    3  A    between atoms: C_13  and  O_14 
REMARK    4  A    between atoms: N_15  and  C_16 
ROOT
HETATM    1  O   UNL     1      -3.923  14.518  23.017  0.00  0.00    -0.245 OA
HETATM    2  C   UNL     1      -3.720  13.680  23.883  0.00  0.00     0.349 A 
HETATM    3  N   UNL     1      -4.583  13.406  24.929  0.00  0.00    -0.226 N 
HETATM    4  H   UNL     1      -5.488  13.832  25.071  0.00  0.00     0.194 HD
HETATM    5  N   UNL     1      -4.140  12.345  25.654  0.00  0.00    -0.151 NA
HETATM    6  C   UNL     1      -3.008  11.996  25.089  0.00  0.00     0.172 A 
HETATM    7  N   UNL     1      -2.681  12.775  24.007  0.00  0.00    -0.243 N 
ENDROOT
BRANCH   6   8
HETATM    8  C   UNL     1      -2.214  10.875  25.657  0.00  0.00     0.045 A 
HETATM    9  C   UNL     1      -1.597  10.019  24.721  0.00  0.00     0.021 A 
HETATM   10  C   UNL     1      -0.823   8.929  25.129  0.00  0.00     0.037 A 
HETATM   11  C   UNL     1      -0.652   8.697  26.486  0.00  0.00     0.068 A 
HETATM   12  C   UNL     1      -1.265   9.510  27.432  0.00  0.00     0.074 A 
HETATM   13  C   UNL     1      -2.079  10.572  27.017  0.00  0.00     0.082 A 
BRANCH  11  14
HETATM   14  O   UNL     1       0.099   7.653  26.936  0.00  0.00    -0.361 OA
HETATM   15  H   UNL     1      -0.339   6.822  26.688  0.00  0.00     0.217 HD
ENDBRANCH  11  14
BRANCH  13  16
HETATM   16  O   UNL     1      -2.778  11.261  27.965  0.00  0.00    -0.360 OA
HETATM   17  H   UNL     1      -2.256  11.302  28.785  0.00  0.00     0.217 HD
ENDBRANCH  13  16
ENDBRANCH   6   8
BRANCH   7  18
HETATM   18  C   UNL     1      -1.694  12.673  23.006  0.00  0.00     0.067 A 
HETATM   19  C   UNL     1      -2.051  12.005  21.818  0.00  0.00     0.032 A 
HETATM   20  C   UNL     1      -1.120  11.787  20.800  0.00  0.00     0.002 A 
HETATM   21  C   UNL     1       0.188  12.220  20.960  0.00  0.00     0.002 A 
HETATM   22  C   UNL     1       0.564  12.882  22.130  0.00  0.00     0.026 A 
HETATM   23  C   UNL     1      -0.366  13.109  23.155  0.00  0.00     0.061 A 
HETATM   24 CL   UNL     1       0.238  13.793  24.621  0.00  0.00    -0.082 Cl
ENDBRANCH   7  18
TORSDOF 4
ENDMDL
MODEL 7
REMARK VINA RESULT:    -6.371      2.791      4.850
REMARK INTER + INTRA:          -8.477
REMARK INTER:                  -7.488
REMARK INTRA:                  -0.988
REMARK UNBOUND:                -0.988
REMARK  4 active torsions:
REMARK  status: ('A' for Active; 'I' for Inactive)
REMARK    1  A    between atoms: C_6  and  C_7 
REMARK    2  A    between atoms: C_10  and  O_11 
REMARK    3  A    between atoms: C_13  and  O_14 
REMARK    4  A    between atoms: N_15  and  C_16 
ROOT
HETATM    1  O   UNL     1      -1.132  11.046  26.565  0.00  0.00    -0.245 OA
HETATM    2  C   UNL     1      -1.891  11.356  25.658  0.00  0.00     0.349 A 
HETATM    3  N   UNL     1      -3.180  10.877  25.512  0.00  0.00    -0.226 N 
HETATM    4  H   UNL     1      -3.652  10.255  26.154  0.00  0.00     0.194 HD
HETATM    5  N   UNL     1      -3.811  11.497  24.480  0.00  0.00    -0.151 NA
HETATM    6  C   UNL     1      -2.916  12.314  23.976  0.00  0.00     0.172 A 
HETATM    7  N   UNL     1      -1.714  12.274  24.638  0.00  0.00    -0.243 N 
ENDROOT
BRANCH   6   8
HETATM    8  C   UNL     1      -3.256  13.138  22.786  0.00  0.00     0.045 A 
HETATM    9  C   UNL     1      -2.501  12.881  21.622  0.00  0.00     0.021 A 
HETATM   10  C   UNL     1      -2.725  13.589  20.438  0.00  0.00     0.037 A 
HETATM   11  C   UNL     1      -3.720  14.554  20.409  0.00  0.00     0.068 A 
HETATM   12  C   UNL     1      -4.465  14.844  21.547  0.00  0.00     0.074 A 
HETATM   13  C   UNL     1      -4.204  14.165  22.744  0.00  0.00     0.082 A 
BRANCH  11  14
HETATM   14  O   UNL     1      -3.984  15.266  19.278  0.00  0.00    -0.361 OA
HETATM   15  H   UNL     1      -3.563  16.139  19.352  0.00  0.00     0.217 HD
ENDBRANCH  11  14
BRANCH  13  16
HETATM   16  O   UNL     1      -4.853  14.572  23.874  0.00  0.00    -0.360 OA
HETATM   17  H   UNL     1      -4.269  14.452  24.643  0.00  0.00     0.217 HD
ENDBRANCH  13  16
ENDBRANCH   6   8
BRANCH   7  18
HETATM   18  C   UNL     1      -0.554  13.072  24.584  0.00  0.00     0.067 A 
HETATM   19  C   UNL     1       0.616  12.471  24.080  0.00  0.00     0.032 A 
HETATM   20  C   UNL     1       1.833  13.156  24.057  0.00  0.00     0.002 A 
HETATM   21  C   UNL     1       1.904  14.449  24.554  0.00  0.00     0.002 A 
HETATM   22  C   UNL     1       0.757  15.063  25.061  0.00  0.00     0.026 A 
HETATM   23  C   UNL     1      -0.470  14.384  25.082  0.00  0.00     0.061 A 
HETATM   24 CL   UNL     1      -1.786  15.174  25.873  0.00  0.00    -0.082 Cl
ENDBRANCH   7  18
TORSDOF 4
ENDMDL
MODEL 8
REMARK VINA RESULT:    -6.343      3.214      5.375
REMARK INTER + INTRA:          -8.444
REMARK INTER:                  -7.488
REMARK INTRA:                  -0.957
REMARK UNBOUND:                -0.988
REMARK  4 active torsions:
REMARK  status: ('A' for Active; 'I' for Inactive)
REMARK    1  A    between atoms: C_6  and  C_7 
REMARK    2  A    between atoms: C_10  and  O_11 
REMARK    3  A    between atoms: C_13  and  O_14 
REMARK    4  A    between atoms: N_15  and  C_16 
ROOT
HETATM    1  O   UNL     1      -3.978  14.447  23.091  0.00  0.00    -0.245 OA
HETATM    2  C   UNL     1      -3.772  13.352  23.595  0.00  0.00     0.349 A 
HETATM    3  N   UNL     1      -4.589  12.247  23.438  0.00  0.00    -0.226 N 
HETATM    4  H   UNL     1      -5.416  12.207  22.859  0.00  0.00     0.194 HD
HETATM    5  N   UNL     1      -4.034  11.151  24.018  0.00  0.00    -0.151 NA
HETATM    6  C   UNL     1      -2.916  11.579  24.556  0.00  0.00     0.172 A 
HETATM    7  N   UNL     1      -2.695  12.918  24.348  0.00  0.00    -0.243 N 
ENDROOT
BRANCH   6   8
HETATM    8  C   UNL     1      -2.057  10.638  25.322  0.00  0.00     0.045 A 
HETATM    9  C   UNL     1      -2.125  10.744  26.727  0.00  0.00     0.021 A 
HETATM   10  C   UNL     1      -1.367   9.916  27.558  0.00  0.00     0.037 A 
HETATM   11  C   UNL     1      -0.539   8.962  26.982  0.00  0.00     0.068 A 
HETATM   12  C   UNL     1      -0.434   8.850  25.601  0.00  0.00     0.074 A 
HETATM   13  C   UNL     1      -1.161   9.715  24.773  0.00  0.00     0.082 A 
BRANCH  11  14
HETATM   14  O   UNL     1       0.215   8.125  27.748  0.00  0.00    -0.361 OA
HETATM   15  H   UNL     1       1.131   8.142  27.423  0.00  0.00     0.217 HD
ENDBRANCH  11  14
BRANCH  13  16
HETATM   16  O   UNL     1      -0.927   9.672  23.428  0.00  0.00    -0.360 OA
HETATM   17  H   UNL     1      -0.284  10.364  23.191  0.00  0.00     0.217 HD
ENDBRANCH  13  16
ENDBRANCH   6   8
BRANCH   7  18
HETATM   18  C   UNL     1      -1.586  13.759  24.566  0.00  0.00     0.067 A 
HETATM   19  C   UNL     1      -0.645  13.867  23.522  0.00  0.00     0.032 A 
HETATM   20  C   UNL     1       0.523  14.615  23.672  0.00  0.00     0.002 A 
HETATM   21  C   UNL     1       0.781  15.256  24.875  0.00  0.00     0.002 A 
HETATM   22  C   UNL     1      -0.136  15.161  25.924  0.00  0.00     0.026 A 
HETATM   23  C   UNL     1      -1.315  14.415  25.780  0.00  0.00     0.061 A 
HETATM   24 CL   UNL     1      -2.300  14.232  27.186  0.00  0.00    -0.082 Cl
ENDBRANCH   7  18
TORSDOF 4
ENDMDL
MODEL 9
REMARK VINA RESULT:    -4.205      2.615      5.708
REMARK INTER + INTRA:          -5.931
REMARK INTER:                  -4.969
REMARK INTRA:                  -0.962
REMARK UNBOUND:                -0.988
REMARK  4 active torsions:
REMARK  status: ('A' for Active; 'I' for Inactive)
REMARK    1  A    between atoms: C_6  and  C_7 
REMARK    2  A    between atoms: C_10  and  O_11 
REMARK    3  A    between atoms: C_13  and  O_14 
REMARK    4  A    between atoms: N_15  and  C_16 
ROOT
HETATM    1  O   UNL     1       0.200  12.480  20.512  0.00  0.00    -0.245 OA
HETATM    2  C   UNL     1      -0.723  12.080  21.206  0.00  0.00     0.349 A 
HETATM    3  N   UNL     1      -1.664  11.150  20.803  0.00  0.00    -0.226 N 
HETATM    4  H   UNL     1      -1.672  10.669  19.914  0.00  0.00     0.194 HD
HETATM    5  N   UNL     1      -2.487  10.819  21.833  0.00  0.00    -0.151 NA
HETATM    6  C   UNL     1      -2.086  11.558  22.840  0.00  0.00     0.172 A 
HETATM    7  N   UNL     1      -1.018  12.363  22.528  0.00  0.00    -0.243 N 
ENDROOT
BRANCH   6   8
HETATM    8  C   UNL     1      -2.800  11.484  24.142  0.00  0.00     0.045 A 
HETATM    9  C   UNL     1      -2.079  10.911  25.210  0.00  0.00     0.021 A 
HETATM   10  C   UNL     1      -2.640  10.785  26.483  0.00  0.00     0.037 A 
HETATM   11  C   UNL     1      -3.930  11.248  26.699  0.00  0.00     0.068 A 
HETATM   12  C   UNL     1      -4.673  11.797  25.660  0.00  0.00     0.074 A 
HETATM   13  C   UNL     1      -4.123  11.877  24.374  0.00  0.00     0.082 A 
BRANCH  11  14
HETATM   14  O   UNL     1      -4.520  11.156  27.924  0.00  0.00    -0.361 OA
HETATM   15  H   UNL     1      -4.158  11.851  28.498  0.00  0.00     0.217 HD
ENDBRANCH  11  14
BRANCH  13  16
HETATM   16  O   UNL     1      -4.926  12.289  23.351  0.00  0.00    -0.360 OA
HETATM   17  H   UNL     1      -5.848  12.328  23.660  0.00  0.00     0.217 HD
ENDBRANCH  13  16
ENDBRANCH   6   8
BRANCH   7  18
HETATM   18  C   UNL     1      -0.154  13.165  23.300  0.00  0.00     0.067 A 
HETATM   19  C   UNL     1       1.127  12.648  23.577  0.00  0.00     0.032 A 
HETATM   20  C   UNL     1       2.026  13.335  24.396  0.00  0.00     0.002 A 
HETATM   21  C   UNL     1       1.652  14.543  24.966  0.00  0.00     0.002 A 
HETATM   22  C   UNL     1       0.386  15.072  24.708  0.00  0.00     0.026 A 
HETATM   23  C   UNL     1      -0.521  14.391  23.882  0.00  0.00     0.061 A 
HETATM   24 CL   UNL     1      -2.110  15.053  23.755  0.00  0.00    -0.082 Cl
ENDBRANCH   7  18
TORSDOF 4
ENDMDL
