REMARK  4 active torsions:
REMARK  status: ('A' for Active; 'I' for Inactive)
REMARK    1  A    between atoms: C_6  and  C_7 
REMARK    2  A    between atoms: C_10  and  O_11 
REMARK    3  A    between atoms: C_13  and  O_14 
REMARK    4  A    between atoms: N_15  and  C_16 
ROOT
HETATM    1  O   UNL     1       1.061   0.182   0.395  0.00  0.00    -0.245 OA
HETATM    2  C   UNL     1       2.253  -0.009   0.203  0.00  0.00     0.349 A 
HETATM    3  N   UNL     1       3.202   0.991   0.090  0.00  0.00    -0.226 N 
HETATM    4  H   UNL     1       3.027   1.981   0.195  0.00  0.00     0.194 HD
HETATM    5  N   UNL     1       4.451   0.463   0.002  0.00  0.00    -0.151 NA
HETATM    6  C   UNL     1       4.273  -0.837   0.021  0.00  0.00     0.172 A 
HETATM    7  N   UNL     1       2.954  -1.200   0.131  0.00  0.00    -0.243 N 
ENDROOT
BRANCH   6   8
HETATM    8  C   UNL     1       5.444  -1.745  -0.101  0.00  0.00     0.045 A 
HETATM    9  C   UNL     1       6.671  -1.237   0.375  0.00  0.00     0.021 A 
HETATM   10  C   UNL     1       7.844  -1.994   0.317  0.00  0.00     0.037 A 
HETATM   11  C   UNL     1       7.792  -3.276  -0.210  0.00  0.00     0.068 A 
HETATM   12  C   UNL     1       6.602  -3.795  -0.707  0.00  0.00     0.074 A 
HETATM   13  C   UNL     1       5.439  -3.014  -0.690  0.00  0.00     0.082 A 
BRANCH  11  14
HETATM   14  O   UNL     1       8.906  -4.058  -0.282  0.00  0.00    -0.361 OA
HETATM   15  H   UNL     1       9.677  -3.530  -0.016  0.00  0.00     0.217 HD
ENDBRANCH  11  14
BRANCH  13  16
HETATM   16  O   UNL     1       4.325  -3.498  -1.313  0.00  0.00    -0.360 OA
HETATM   17  H   UNL     1       4.522  -4.372  -1.693  0.00  0.00     0.217 HD
ENDBRANCH  13  16
ENDBRANCH   6   8
BRANCH   7  18
HETATM   18  C   UNL     1       2.306  -2.429   0.368  0.00  0.00     0.067 A 
HETATM   19  C   UNL     1       1.184  -2.728  -0.430  0.00  0.00     0.032 A 
HETATM   20  C   UNL     1       0.431  -3.885  -0.220  0.00  0.00     0.002 A 
HETATM   21  C   UNL     1       0.777  -4.755   0.804  0.00  0.00     0.002 A 
HETATM   22  C   UNL     1       1.883  -4.476   1.609  0.00  0.00     0.026 A 
HETATM   23  C   UNL     1       2.648  -3.319   1.401  0.00  0.00     0.061 A 
HETATM   24 CL   UNL     1       3.895  -2.990   2.549  0.00  0.00    -0.082 Cl
ENDBRANCH   7  18
TORSDOF 4
