MODEL 1
REMARK VINA RESULT:    -8.789      0.000      0.000
REMARK INTER + INTRA:         -12.056
REMARK INTER:                 -10.826
REMARK INTRA:                  -1.230
REMARK UNBOUND:                -0.956
REMARK  5 active torsions:
REMARK  status: ('A' for Active; 'I' for Inactive)
REMARK    1  A    between atoms: C_7  and  N_8 
REMARK       I    between atoms: N_8  and  C_10 
REMARK    2  A    between atoms: C_10  and  C_12 
REMARK    3  A    between atoms: C_14  and  O_15 
REMARK    4  A    between atoms: C_22  and  C_23 
REMARK    5  A    between atoms: C_23  and  C_24 
ROOT
HETATM    1  C   UNL     1       4.930  10.452  24.973  0.00  0.00     0.066 C 
HETATM    2  C   UNL     1       5.697  11.543  25.428  0.00  0.00     0.035 C 
HETATM    3  C   UNL     1       5.616   9.349  24.425  0.00  0.00     0.083 C 
HETATM    4  C   UNL     1       7.005   9.354  24.229  0.00  0.00     0.069 C 
HETATM    5  C   UNL     1       7.683  10.540  24.530  0.00  0.00     0.065 A 
HETATM    6  C   UNL     1       7.065  11.648  25.087  0.00  0.00     0.020 A 
HETATM    7  N   UNL     1       8.997  10.887  24.394  0.00  0.00    -0.277 N 
HETATM    8  H   UNL     1       9.759  10.306  24.069  0.00  0.00     0.189 HD
HETATM    9  N   UNL     1       9.259  12.173  24.703  0.00  0.00    -0.178 NA
HETATM   10  C   UNL     1       8.076  12.672  25.102  0.00  0.00     0.071 A 
ENDROOT
BRANCH   1  11
HETATM   11  C   UNL     1       3.414  10.399  25.058  0.00  0.00     0.260 C 
HETATM   12  N   UNL     1       2.591  11.329  24.331  0.00  0.00    -0.318 N 
HETATM   13  C   UNL     1       3.168  12.316  23.429  0.00  0.00     0.159 C 
HETATM   14  O   UNL     1       2.977   9.471  25.752  0.00  0.00    -0.267 OA
BRANCH  12  15
HETATM   15  C   UNL     1       1.133  11.371  24.477  0.00  0.00     0.037 A 
HETATM   16  C   UNL     1       0.494  12.569  24.884  0.00  0.00     0.033 A 
HETATM   17  C   UNL     1      -0.893  12.666  25.057  0.00  0.00     0.044 A 
HETATM   18  C   UNL     1      -1.680  11.553  24.838  0.00  0.00     0.116 A 
HETATM   19  F   UNL     1      -3.004  11.626  25.022  0.00  0.00    -0.206 F 
HETATM   20  C   UNL     1      -1.103  10.365  24.420  0.00  0.00     0.044 A 
HETATM   21  C   UNL     1       0.288  10.277  24.236  0.00  0.00     0.033 A 
ENDBRANCH  12  15
ENDBRANCH   1  11
BRANCH   3  22
HETATM   22  O   UNL     1       4.992   8.185  24.040  0.00  0.00    -0.360 OA
HETATM   23  H   UNL     1       5.694   7.519  23.852  0.00  0.00     0.217 HD
ENDBRANCH   3  22
BRANCH  10  24
HETATM   24  C   UNL     1       7.989  14.138  25.458  0.00  0.00     0.100 C 
BRANCH  24  25
HETATM   25  C   UNL     1       6.693  14.774  24.961  0.00  0.00    -0.052 A 
HETATM   26  C   UNL     1       6.509  15.215  23.640  0.00  0.00     0.007 A 
HETATM   27  C   UNL     1       5.296  15.769  23.223  0.00  0.00     0.001 A 
HETATM   28  C   UNL     1       4.269  15.986  24.136  0.00  0.00     0.007 A 
HETATM   29  C   UNL     1       4.460  15.693  25.487  0.00  0.00    -0.061 A 
HETATM   30  C   UNL     1       5.653  15.050  25.882  0.00  0.00     0.014 A 
HETATM   31  C   UNL     1       3.394  16.081  26.472  0.00  0.00     0.048 C 
ENDBRANCH  24  25
ENDBRANCH  10  24
TORSDOF 5
ENDMDL
MODEL 2
REMARK VINA RESULT:    -8.762      4.139      5.330
REMARK INTER + INTRA:         -12.023
REMARK INTER:                 -11.449
REMARK INTRA:                  -0.574
REMARK UNBOUND:                -0.956
REMARK  5 active torsions:
REMARK  status: ('A' for Active; 'I' for Inactive)
REMARK    1  A    between atoms: C_7  and  N_8 
REMARK       I    between atoms: N_8  and  C_10 
REMARK    2  A    between atoms: C_10  and  C_12 
REMARK    3  A    between atoms: C_14  and  O_15 
REMARK    4  A    between atoms: C_22  and  C_23 
REMARK    5  A    between atoms: C_23  and  C_24 
ROOT
HETATM    1  C   UNL     1       6.867  11.334  21.509  0.00  0.00     0.066 C 
HETATM    2  C   UNL     1       6.253  12.451  22.109  0.00  0.00     0.035 C 
HETATM    3  C   UNL     1       8.223  11.088  21.808  0.00  0.00     0.083 C 
HETATM    4  C   UNL     1       8.988  11.968  22.589  0.00  0.00     0.069 C 
HETATM    5  C   UNL     1       8.369  13.153  22.998  0.00  0.00     0.065 A 
HETATM    6  C   UNL     1       7.035  13.440  22.750  0.00  0.00     0.020 A 
HETATM    7  N   UNL     1       8.845  14.225  23.698  0.00  0.00    -0.277 N 
HETATM    8  H   UNL     1       9.768  14.342  24.096  0.00  0.00     0.189 HD
HETATM    9  N   UNL     1       7.964  15.239  23.816  0.00  0.00    -0.178 NA
HETATM   10  C   UNL     1       6.850  14.790  23.210  0.00  0.00     0.071 A 
ENDROOT
BRANCH   1  11
HETATM   11  C   UNL     1       6.142  10.379  20.576  0.00  0.00     0.260 C 
HETATM   12  N   UNL     1       5.222   9.395  21.082  0.00  0.00    -0.318 N 
HETATM   13  C   UNL     1       4.891   9.314  22.497  0.00  0.00     0.159 C 
HETATM   14  O   UNL     1       6.378  10.566  19.375  0.00  0.00    -0.267 OA
BRANCH  12  15
HETATM   15  C   UNL     1       4.590   8.392  20.219  0.00  0.00     0.037 A 
HETATM   16  C   UNL     1       3.740   7.406  20.780  0.00  0.00     0.033 A 
HETATM   17  C   UNL     1       3.121   6.413  20.010  0.00  0.00     0.044 A 
HETATM   18  C   UNL     1       3.352   6.372  18.649  0.00  0.00     0.116 A 
HETATM   19  F   UNL     1       2.786   5.414  17.905  0.00  0.00    -0.206 F 
HETATM   20  C   UNL     1       4.160   7.326  18.052  0.00  0.00     0.044 A 
HETATM   21  C   UNL     1       4.767   8.328  18.828  0.00  0.00     0.033 A 
ENDBRANCH  12  15
ENDBRANCH   1  11
BRANCH   3  22
HETATM   22  O   UNL     1       8.906   9.978  21.370  0.00  0.00    -0.360 OA
HETATM   23  H   UNL     1       9.805  10.272  21.092  0.00  0.00     0.217 HD
ENDBRANCH   3  22
BRANCH  10  24
HETATM   24  C   UNL     1       5.664  15.719  23.092  0.00  0.00     0.100 C 
BRANCH  24  25
HETATM   25  C   UNL     1       4.507  15.290  23.992  0.00  0.00    -0.052 A 
HETATM   26  C   UNL     1       3.534  14.355  23.602  0.00  0.00     0.007 A 
HETATM   27  C   UNL     1       2.506  13.975  24.469  0.00  0.00     0.001 A 
HETATM   28  C   UNL     1       2.367  14.587  25.710  0.00  0.00     0.007 A 
HETATM   29  C   UNL     1       3.229  15.621  26.081  0.00  0.00    -0.061 A 
HETATM   30  C   UNL     1       4.318  15.935  25.239  0.00  0.00     0.014 A 
HETATM   31  C   UNL     1       2.962  16.367  27.357  0.00  0.00     0.048 C 
ENDBRANCH  24  25
ENDBRANCH  10  24
TORSDOF 5
ENDMDL
MODEL 3
REMARK VINA RESULT:    -8.722      3.432      5.126
REMARK INTER + INTRA:         -11.972
REMARK INTER:                 -10.872
REMARK INTRA:                  -1.100
REMARK UNBOUND:                -0.956
REMARK  5 active torsions:
REMARK  status: ('A' for Active; 'I' for Inactive)
REMARK    1  A    between atoms: C_7  and  N_8 
REMARK       I    between atoms: N_8  and  C_10 
REMARK    2  A    between atoms: C_10  and  C_12 
REMARK    3  A    between atoms: C_14  and  O_15 
REMARK    4  A    between atoms: C_22  and  C_23 
REMARK    5  A    between atoms: C_23  and  C_24 
ROOT
HETATM    1  C   UNL     1       6.461  14.230  24.957  0.00  0.00     0.066 C 
HETATM    2  C   UNL     1       7.177  15.006  24.023  0.00  0.00     0.035 C 
HETATM    3  C   UNL     1       7.116  13.871  26.153  0.00  0.00     0.083 C 
HETATM    4  C   UNL     1       8.467  14.172  26.386  0.00  0.00     0.069 C 
HETATM    5  C   UNL     1       9.170  14.779  25.340  0.00  0.00     0.065 A 
HETATM    6  C   UNL     1       8.575  15.170  24.151  0.00  0.00     0.020 A 
HETATM    7  N   UNL     1      10.483  15.135  25.224  0.00  0.00    -0.277 N 
HETATM    8  H   UNL     1      11.210  15.052  25.922  0.00  0.00     0.189 HD
HETATM    9  N   UNL     1      10.816  15.614  24.007  0.00  0.00    -0.178 NA
HETATM   10  C   UNL     1       9.661  15.614  23.317  0.00  0.00     0.071 A 
ENDROOT
BRANCH   1  11
HETATM   11  C   UNL     1       5.025  13.779  24.749  0.00  0.00     0.260 C 
HETATM   12  N   UNL     1       3.928  14.702  24.869  0.00  0.00    -0.318 N 
HETATM   13  C   UNL     1       4.145  16.118  25.128  0.00  0.00     0.159 C 
HETATM   14  O   UNL     1       4.909  12.590  24.423  0.00  0.00    -0.267 OA
BRANCH  12  15
HETATM   15  C   UNL     1       2.528  14.275  24.780  0.00  0.00     0.037 A 
HETATM   16  C   UNL     1       1.925  14.076  23.513  0.00  0.00     0.033 A 
HETATM   17  C   UNL     1       0.589  13.684  23.363  0.00  0.00     0.044 A 
HETATM   18  C   UNL     1      -0.190  13.494  24.488  0.00  0.00     0.116 A 
HETATM   19  F   UNL     1      -1.474  13.143  24.358  0.00  0.00    -0.206 F 
HETATM   20  C   UNL     1       0.361  13.656  25.749  0.00  0.00     0.044 A 
HETATM   21  C   UNL     1       1.706  14.037  25.893  0.00  0.00     0.033 A 
ENDBRANCH  12  15
ENDBRANCH   1  11
BRANCH   3  22
HETATM   22  O   UNL     1       6.497  13.206  27.185  0.00  0.00    -0.360 OA
HETATM   23  H   UNL     1       6.274  13.871  27.878  0.00  0.00     0.217 HD
ENDBRANCH   3  22
BRANCH  10  24
HETATM   24  C   UNL     1       9.684  16.029  21.865  0.00  0.00     0.100 C 
BRANCH  24  25
HETATM   25  C   UNL     1       9.664  14.826  20.924  0.00  0.00    -0.052 A 
HETATM   26  C   UNL     1       8.532  14.446  20.183  0.00  0.00     0.007 A 
HETATM   27  C   UNL     1       8.567  13.352  19.316  0.00  0.00     0.001 A 
HETATM   28  C   UNL     1       9.701  12.550  19.237  0.00  0.00     0.007 A 
HETATM   29  C   UNL     1      10.799  12.808  20.060  0.00  0.00    -0.061 A 
HETATM   30  C   UNL     1      10.789  13.967  20.865  0.00  0.00     0.014 A 
HETATM   31  C   UNL     1      11.946  11.838  20.066  0.00  0.00     0.048 C 
ENDBRANCH  24  25
ENDBRANCH  10  24
TORSDOF 5
ENDMDL
MODEL 4
REMARK VINA RESULT:    -8.694      3.717      4.529
REMARK INTER + INTRA:         -11.937
REMARK INTER:                 -10.859
REMARK INTRA:                  -1.077
REMARK UNBOUND:                -0.956
REMARK  5 active torsions:
REMARK  status: ('A' for Active; 'I' for Inactive)
REMARK    1  A    between atoms: C_7  and  N_8 
REMARK       I    between atoms: N_8  and  C_10 
REMARK    2  A    between atoms: C_10  and  C_12 
REMARK    3  A    between atoms: C_14  and  O_15 
REMARK    4  A    between atoms: C_22  and  C_23 
REMARK    5  A    between atoms: C_23  and  C_24 
ROOT
HETATM    1  C   UNL     1       6.491  11.265  21.614  0.00  0.00     0.066 C 
HETATM    2  C   UNL     1       6.808  11.944  22.807  0.00  0.00     0.035 C 
HETATM    3  C   UNL     1       7.349  11.438  20.510  0.00  0.00     0.083 C 
HETATM    4  C   UNL     1       8.430  12.333  20.536  0.00  0.00     0.069 C 
HETATM    5  C   UNL     1       8.578  13.114  21.686  0.00  0.00     0.065 A 
HETATM    6  C   UNL     1       7.776  12.975  22.809  0.00  0.00     0.020 A 
HETATM    7  N   UNL     1       9.467  14.104  21.997  0.00  0.00    -0.277 N 
HETATM    8  H   UNL     1      10.239  14.439  21.435  0.00  0.00     0.189 HD
HETATM    9  N   UNL     1       9.229  14.703  23.182  0.00  0.00    -0.178 NA
HETATM   10  C   UNL     1       8.170  14.044  23.686  0.00  0.00     0.071 A 
ENDROOT
BRANCH   1  11
HETATM   11  C   UNL     1       5.288  10.348  21.465  0.00  0.00     0.260 C 
HETATM   12  N   UNL     1       5.357   8.959  21.834  0.00  0.00    -0.318 N 
HETATM   13  C   UNL     1       6.556   8.385  22.428  0.00  0.00     0.159 C 
HETATM   14  O   UNL     1       4.265  10.916  21.059  0.00  0.00    -0.267 OA
BRANCH  12  15
HETATM   15  C   UNL     1       4.249   8.027  21.602  0.00  0.00     0.037 A 
HETATM   16  C   UNL     1       4.100   7.401  20.340  0.00  0.00     0.033 A 
HETATM   17  C   UNL     1       3.054   6.514  20.054  0.00  0.00     0.044 A 
HETATM   18  C   UNL     1       2.113   6.242  21.027  0.00  0.00     0.116 A 
HETATM   19  F   UNL     1       1.095   5.417  20.760  0.00  0.00    -0.206 F 
HETATM   20  C   UNL     1       2.228   6.816  22.283  0.00  0.00     0.044 A 
HETATM   21  C   UNL     1       3.287   7.694  22.569  0.00  0.00     0.033 A 
ENDBRANCH  12  15
ENDBRANCH   1  11
BRANCH   3  22
HETATM   22  O   UNL     1       7.208  10.754  19.325  0.00  0.00    -0.360 OA
HETATM   23  H   UNL     1       7.046   9.807  19.545  0.00  0.00     0.217 HD
ENDBRANCH   3  22
BRANCH  10  24
HETATM   24  C   UNL     1       7.582  14.513  24.996  0.00  0.00     0.100 C 
BRANCH  24  25
HETATM   25  C   UNL     1       6.178  15.088  24.822  0.00  0.00    -0.052 A 
HETATM   26  C   UNL     1       5.704  15.607  23.605  0.00  0.00     0.007 A 
HETATM   27  C   UNL     1       4.402  16.101  23.486  0.00  0.00     0.001 A 
HETATM   28  C   UNL     1       3.572  16.179  24.600  0.00  0.00     0.007 A 
HETATM   29  C   UNL     1       4.052  15.806  25.857  0.00  0.00    -0.061 A 
HETATM   30  C   UNL     1       5.334  15.223  25.952  0.00  0.00     0.014 A 
HETATM   31  C   UNL     1       3.189  16.045  27.064  0.00  0.00     0.048 C 
ENDBRANCH  24  25
ENDBRANCH  10  24
TORSDOF 5
ENDMDL
MODEL 5
REMARK VINA RESULT:    -8.479      3.652      4.456
REMARK INTER + INTRA:         -11.665
REMARK INTER:                 -10.446
REMARK INTRA:                  -1.219
REMARK UNBOUND:                -0.956
REMARK  5 active torsions:
REMARK  status: ('A' for Active; 'I' for Inactive)
REMARK    1  A    between atoms: C_7  and  N_8 
REMARK       I    between atoms: N_8  and  C_10 
REMARK    2  A    between atoms: C_10  and  C_12 
REMARK    3  A    between atoms: C_14  and  O_15 
REMARK    4  A    between atoms: C_22  and  C_23 
REMARK    5  A    between atoms: C_23  and  C_24 
ROOT
HETATM    1  C   UNL     1       8.233  10.601  22.776  0.00  0.00     0.066 C 
HETATM    2  C   UNL     1       8.114  11.421  23.916  0.00  0.00     0.035 C 
HETATM    3  C   UNL     1       9.328  10.823  21.917  0.00  0.00     0.083 C 
HETATM    4  C   UNL     1      10.225  11.886  22.108  0.00  0.00     0.069 C 
HETATM    5  C   UNL     1       9.942  12.774  23.151  0.00  0.00     0.065 A 
HETATM    6  C   UNL     1       8.892  12.596  24.037  0.00  0.00     0.020 A 
HETATM    7  N   UNL     1      10.566  13.920  23.554  0.00  0.00    -0.277 N 
HETATM    8  H   UNL     1      11.408  14.332  23.172  0.00  0.00     0.189 HD
HETATM    9  N   UNL     1       9.932  14.568  24.553  0.00  0.00    -0.178 NA
HETATM   10  C   UNL     1       8.878  13.786  24.846  0.00  0.00     0.071 A 
ENDROOT
BRANCH   1  11
HETATM   11  C   UNL     1       7.256   9.487  22.439  0.00  0.00     0.260 C 
HETATM   12  N   UNL     1       5.994   9.766  21.807  0.00  0.00    -0.318 N 
HETATM   13  C   UNL     1       5.624  11.114  21.401  0.00  0.00     0.159 C 
HETATM   14  O   UNL     1       7.670   8.351  22.707  0.00  0.00    -0.267 OA
BRANCH  12  15
HETATM   15  C   UNL     1       4.987   8.727  21.568  0.00  0.00     0.037 A 
HETATM   16  C   UNL     1       4.119   8.324  22.613  0.00  0.00     0.033 A 
HETATM   17  C   UNL     1       3.149   7.327  22.450  0.00  0.00     0.044 A 
HETATM   18  C   UNL     1       3.032   6.691  21.229  0.00  0.00     0.116 A 
HETATM   19  F   UNL     1       2.127   5.720  21.066  0.00  0.00    -0.206 F 
HETATM   20  C   UNL     1       3.846   7.065  20.171  0.00  0.00     0.044 A 
HETATM   21  C   UNL     1       4.808   8.075  20.338  0.00  0.00     0.033 A 
ENDBRANCH  12  15
ENDBRANCH   1  11
BRANCH   3  22
HETATM   22  O   UNL     1       9.613  10.029  20.832  0.00  0.00    -0.360 OA
HETATM   23  H   UNL     1      10.590  10.037  20.704  0.00  0.00     0.217 HD
ENDBRANCH   3  22
BRANCH  10  24
HETATM   24  C   UNL     1       7.894  14.257  25.891  0.00  0.00     0.100 C 
BRANCH  24  25
HETATM   25  C   UNL     1       6.620  14.824  25.267  0.00  0.00    -0.052 A 
HETATM   26  C   UNL     1       6.524  15.191  23.915  0.00  0.00     0.007 A 
HETATM   27  C   UNL     1       5.330  15.684  23.381  0.00  0.00     0.001 A 
HETATM   28  C   UNL     1       4.231  15.912  24.203  0.00  0.00     0.007 A 
HETATM   29  C   UNL     1       4.329  15.693  25.579  0.00  0.00    -0.061 A 
HETATM   30  C   UNL     1       5.506  15.111  26.094  0.00  0.00     0.014 A 
HETATM   31  C   UNL     1       3.181  16.094  26.461  0.00  0.00     0.048 C 
ENDBRANCH  24  25
ENDBRANCH  10  24
TORSDOF 5
ENDMDL
MODEL 6
REMARK VINA RESULT:    -8.356      2.199      2.726
REMARK INTER + INTRA:         -11.510
REMARK INTER:                 -10.134
REMARK INTRA:                  -1.376
REMARK UNBOUND:                -0.956
REMARK  5 active torsions:
REMARK  status: ('A' for Active; 'I' for Inactive)
REMARK    1  A    between atoms: C_7  and  N_8 
REMARK       I    between atoms: N_8  and  C_10 
REMARK    2  A    between atoms: C_10  and  C_12 
REMARK    3  A    between atoms: C_14  and  O_15 
REMARK    4  A    between atoms: C_22  and  C_23 
REMARK    5  A    between atoms: C_23  and  C_24 
ROOT
HETATM    1  C   UNL     1       7.037   9.896  24.061  0.00  0.00     0.066 C 
HETATM    2  C   UNL     1       7.298  11.030  24.856  0.00  0.00     0.035 C 
HETATM    3  C   UNL     1       8.033   9.486  23.152  0.00  0.00     0.083 C 
HETATM    4  C   UNL     1       9.209  10.223  22.949  0.00  0.00     0.069 C 
HETATM    5  C   UNL     1       9.322  11.437  23.633  0.00  0.00     0.065 A 
HETATM    6  C   UNL     1       8.385  11.882  24.552  0.00  0.00     0.020 A 
HETATM    7  N   UNL     1      10.290  12.401  23.607  0.00  0.00    -0.277 N 
HETATM    8  H   UNL     1      11.158  12.390  23.088  0.00  0.00     0.189 HD
HETATM    9  N   UNL     1       9.996  13.494  24.341  0.00  0.00    -0.178 NA
HETATM   10  C   UNL     1       8.809  13.210  24.908  0.00  0.00     0.071 A 
ENDROOT
BRANCH   1  11
HETATM   11  C   UNL     1       5.751   9.091  24.146  0.00  0.00     0.260 C 
HETATM   12  N   UNL     1       4.548   9.532  23.491  0.00  0.00    -0.318 N 
HETATM   13  C   UNL     1       4.524  10.729  22.663  0.00  0.00     0.159 C 
HETATM   14  O   UNL     1       5.859   8.027  24.771  0.00  0.00    -0.267 OA
BRANCH  12  15
HETATM   15  C   UNL     1       3.268   8.833  23.644  0.00  0.00     0.037 A 
HETATM   16  C   UNL     1       2.302   9.312  24.564  0.00  0.00     0.033 A 
HETATM   17  C   UNL     1       1.069   8.680  24.765  0.00  0.00     0.044 A 
HETATM   18  C   UNL     1       0.774   7.533  24.055  0.00  0.00     0.116 A 
HETATM   19  F   UNL     1      -0.391   6.905  24.255  0.00  0.00    -0.206 F 
HETATM   20  C   UNL     1       1.678   7.038  23.129  0.00  0.00     0.044 A 
HETATM   21  C   UNL     1       2.909   7.685  22.922  0.00  0.00     0.033 A 
ENDBRANCH  12  15
ENDBRANCH   1  11
BRANCH   3  22
HETATM   22  O   UNL     1       7.942   8.341  22.395  0.00  0.00    -0.360 OA
HETATM   23  H   UNL     1       7.051   7.950  22.551  0.00  0.00     0.217 HD
ENDBRANCH   3  22
BRANCH  10  24
HETATM   24  C   UNL     1       8.138  14.266  25.754  0.00  0.00     0.100 C 
BRANCH  24  25
HETATM   25  C   UNL     1       6.863  14.799  25.103  0.00  0.00    -0.052 A 
HETATM   26  C   UNL     1       6.779  15.148  23.745  0.00  0.00     0.007 A 
HETATM   27  C   UNL     1       5.584  15.608  23.187  0.00  0.00     0.001 A 
HETATM   28  C   UNL     1       4.468  15.823  23.989  0.00  0.00     0.007 A 
HETATM   29  C   UNL     1       4.548  15.623  25.368  0.00  0.00    -0.061 A 
HETATM   30  C   UNL     1       5.730  15.071  25.909  0.00  0.00     0.014 A 
HETATM   31  C   UNL     1       3.378  16.009  26.228  0.00  0.00     0.048 C 
ENDBRANCH  24  25
ENDBRANCH  10  24
TORSDOF 5
ENDMDL
MODEL 7
REMARK VINA RESULT:    -8.306      3.833      5.559
REMARK INTER + INTRA:         -11.447
REMARK INTER:                 -10.327
REMARK INTRA:                  -1.120
REMARK UNBOUND:                -0.956
REMARK  5 active torsions:
REMARK  status: ('A' for Active; 'I' for Inactive)
REMARK    1  A    between atoms: C_7  and  N_8 
REMARK       I    between atoms: N_8  and  C_10 
REMARK    2  A    between atoms: C_10  and  C_12 
REMARK    3  A    between atoms: C_14  and  O_15 
REMARK    4  A    between atoms: C_22  and  C_23 
REMARK    5  A    between atoms: C_23  and  C_24 
ROOT
HETATM    1  C   UNL     1       8.021  10.832  23.955  0.00  0.00     0.066 C 
HETATM    2  C   UNL     1       7.306  12.045  23.992  0.00  0.00     0.035 C 
HETATM    3  C   UNL     1       9.041  10.639  24.909  0.00  0.00     0.083 C 
HETATM    4  C   UNL     1       9.424  11.646  25.808  0.00  0.00     0.069 C 
HETATM    5  C   UNL     1       8.802  12.890  25.668  0.00  0.00     0.065 A 
HETATM    6  C   UNL     1       7.781  13.133  24.762  0.00  0.00     0.020 A 
HETATM    7  N   UNL     1       8.989  14.072  26.327  0.00  0.00    -0.277 N 
HETATM    8  H   UNL     1       9.619  14.256  27.097  0.00  0.00     0.189 HD
HETATM    9  N   UNL     1       8.260  15.095  25.837  0.00  0.00    -0.178 NA
HETATM   10  C   UNL     1       7.530  14.546  24.849  0.00  0.00     0.071 A 
ENDROOT
BRANCH   1  11
HETATM   11  C   UNL     1       7.738   9.722  22.956  0.00  0.00     0.260 C 
HETATM   12  N   UNL     1       6.611   8.842  23.117  0.00  0.00    -0.318 N 
HETATM   13  C   UNL     1       5.655   9.015  24.201  0.00  0.00     0.159 C 
HETATM   14  O   UNL     1       8.520   9.692  21.996  0.00  0.00    -0.267 OA
BRANCH  12  15
HETATM   15  C   UNL     1       6.374   7.698  22.231  0.00  0.00     0.037 A 
HETATM   16  C   UNL     1       7.159   6.525  22.359  0.00  0.00     0.033 A 
HETATM   17  C   UNL     1       6.990   5.406  21.533  0.00  0.00     0.044 A 
HETATM   18  C   UNL     1       6.033   5.440  20.538  0.00  0.00     0.116 A 
HETATM   19  F   UNL     1       5.877   4.388  19.726  0.00  0.00    -0.206 F 
HETATM   20  C   UNL     1       5.227   6.557  20.387  0.00  0.00     0.044 A 
HETATM   21  C   UNL     1       5.393   7.671  21.227  0.00  0.00     0.033 A 
ENDBRANCH  12  15
ENDBRANCH   1  11
BRANCH   3  22
HETATM   22  O   UNL     1       9.740   9.462  25.043  0.00  0.00    -0.360 OA
HETATM   23  H   UNL     1      10.620   9.588  24.618  0.00  0.00     0.217 HD
ENDBRANCH   3  22
BRANCH  10  24
HETATM   24  C   UNL     1       6.638  15.443  24.023  0.00  0.00     0.100 C 
BRANCH  24  25
HETATM   25  C   UNL     1       5.162  15.261  24.369  0.00  0.00    -0.052 A 
HETATM   26  C   UNL     1       4.208  14.790  23.452  0.00  0.00     0.007 A 
HETATM   27  C   UNL     1       2.871  14.617  23.820  0.00  0.00     0.001 A 
HETATM   28  C   UNL     1       2.433  14.998  25.084  0.00  0.00     0.007 A 
HETATM   29  C   UNL     1       3.318  15.601  25.980  0.00  0.00    -0.061 A 
HETATM   30  C   UNL     1       4.684  15.688  25.633  0.00  0.00     0.014 A 
HETATM   31  C   UNL     1       2.785  16.143  27.275  0.00  0.00     0.048 C 
ENDBRANCH  24  25
ENDBRANCH  10  24
TORSDOF 5
ENDMDL
MODEL 8
REMARK VINA RESULT:    -8.255      2.799      4.108
REMARK INTER + INTRA:         -11.382
REMARK INTER:                 -10.102
REMARK INTRA:                  -1.280
REMARK UNBOUND:                -0.956
REMARK  5 active torsions:
REMARK  status: ('A' for Active; 'I' for Inactive)
REMARK    1  A    between atoms: C_7  and  N_8 
REMARK       I    between atoms: N_8  and  C_10 
REMARK    2  A    between atoms: C_10  and  C_12 
REMARK    3  A    between atoms: C_14  and  O_15 
REMARK    4  A    between atoms: C_22  and  C_23 
REMARK    5  A    between atoms: C_23  and  C_24 
ROOT
HETATM    1  C   UNL     1       7.331  11.336  24.890  0.00  0.00     0.066 C 
HETATM    2  C   UNL     1       8.404  12.168  25.267  0.00  0.00     0.035 C 
HETATM    3  C   UNL     1       7.622   9.996  24.563  0.00  0.00     0.083 C 
HETATM    4  C   UNL     1       8.936   9.508  24.503  0.00  0.00     0.069 C 
HETATM    5  C   UNL     1       9.965  10.434  24.706  0.00  0.00     0.065 A 
HETATM    6  C   UNL     1       9.740  11.759  25.048  0.00  0.00     0.020 A 
HETATM    7  N   UNL     1      11.323  10.300  24.652  0.00  0.00    -0.277 N 
HETATM    8  H   UNL     1      11.854   9.456  24.483  0.00  0.00     0.189 HD
HETATM    9  N   UNL     1      11.995  11.458  24.809  0.00  0.00    -0.178 NA
HETATM   10  C   UNL     1      11.038  12.378  25.022  0.00  0.00     0.071 A 
ENDROOT
BRANCH   1  11
HETATM   11  C   UNL     1       5.886  11.803  24.836  0.00  0.00     0.260 C 
HETATM   12  N   UNL     1       5.383  12.547  23.712  0.00  0.00    -0.318 N 
HETATM   13  C   UNL     1       6.212  12.828  22.549  0.00  0.00     0.159 C 
HETATM   14  O   UNL     1       5.200  11.441  25.801  0.00  0.00    -0.267 OA
BRANCH  12  15
HETATM   15  C   UNL     1       4.026  13.103  23.680  0.00  0.00     0.037 A 
HETATM   16  C   UNL     1       3.788  14.423  24.136  0.00  0.00     0.033 A 
HETATM   17  C   UNL     1       2.513  15.002  24.145  0.00  0.00     0.044 A 
HETATM   18  C   UNL     1       1.432  14.263  23.706  0.00  0.00     0.116 A 
HETATM   19  F   UNL     1       0.205  14.796  23.732  0.00  0.00    -0.206 F 
HETATM   20  C   UNL     1       1.618  12.974  23.232  0.00  0.00     0.044 A 
HETATM   21  C   UNL     1       2.902  12.403  23.214  0.00  0.00     0.033 A 
ENDBRANCH  12  15
ENDBRANCH   1  11
BRANCH   3  22
HETATM   22  O   UNL     1       6.656   9.059  24.280  0.00  0.00    -0.360 OA
HETATM   23  H   UNL     1       6.169   9.365  23.479  0.00  0.00     0.217 HD
ENDBRANCH   3  22
BRANCH  10  24
HETATM   24  C   UNL     1      11.442  13.827  25.168  0.00  0.00     0.100 C 
BRANCH  24  25
HETATM   25  C   UNL     1      10.990  14.672  23.979  0.00  0.00    -0.052 A 
HETATM   26  C   UNL     1      10.870  16.070  24.030  0.00  0.00     0.007 A 
HETATM   27  C   UNL     1      10.475  16.805  22.909  0.00  0.00     0.001 A 
HETATM   28  C   UNL     1      10.099  16.157  21.737  0.00  0.00     0.007 A 
HETATM   29  C   UNL     1      10.069  14.762  21.687  0.00  0.00    -0.061 A 
HETATM   30  C   UNL     1      10.556  14.030  22.792  0.00  0.00     0.014 A 
HETATM   31  C   UNL     1       9.513  14.090  20.464  0.00  0.00     0.048 C 
ENDBRANCH  24  25
ENDBRANCH  10  24
TORSDOF 5
ENDMDL
MODEL 9
REMARK VINA RESULT:    -8.171      3.004      4.487
REMARK INTER + INTRA:         -11.276
REMARK INTER:                 -10.321
REMARK INTRA:                  -0.956
REMARK UNBOUND:                -0.956
REMARK  5 active torsions:
REMARK  status: ('A' for Active; 'I' for Inactive)
REMARK    1  A    between atoms: C_7  and  N_8 
REMARK       I    between atoms: N_8  and  C_10 
REMARK    2  A    between atoms: C_10  and  C_12 
REMARK    3  A    between atoms: C_14  and  O_15 
REMARK    4  A    between atoms: C_22  and  C_23 
REMARK    5  A    between atoms: C_23  and  C_24 
ROOT
HETATM    1  C   UNL     1       4.858  13.511  24.288  0.00  0.00     0.066 C 
HETATM    2  C   UNL     1       5.697  14.354  23.533  0.00  0.00     0.035 C 
HETATM    3  C   UNL     1       5.291  13.134  25.576  0.00  0.00     0.083 C 
HETATM    4  C   UNL     1       6.557  13.483  26.072  0.00  0.00     0.069 C 
HETATM    5  C   UNL     1       7.413  14.162  25.199  0.00  0.00     0.065 A 
HETATM    6  C   UNL     1       7.036  14.574  23.930  0.00  0.00     0.020 A 
HETATM    7  N   UNL     1       8.705  14.579  25.346  0.00  0.00    -0.277 N 
HETATM    8  H   UNL     1       9.290  14.500  26.168  0.00  0.00     0.189 HD
HETATM    9  N   UNL     1       9.238  15.120  24.231  0.00  0.00    -0.178 NA
HETATM   10  C   UNL     1       8.236  15.097  23.334  0.00  0.00     0.071 A 
ENDROOT
BRANCH   1  11
HETATM   11  C   UNL     1       3.512  13.006  23.795  0.00  0.00     0.260 C 
HETATM   12  N   UNL     1       2.290  13.686  24.134  0.00  0.00    -0.318 N 
HETATM   13  C   UNL     1       2.290  14.921  24.904  0.00  0.00     0.159 C 
HETATM   14  O   UNL     1       3.582  12.017  23.054  0.00  0.00    -0.267 OA
BRANCH  12  15
HETATM   15  C   UNL     1       0.971  13.163  23.763  0.00  0.00     0.037 A 
HETATM   16  C   UNL     1       0.181  12.482  24.722  0.00  0.00     0.033 A 
HETATM   17  C   UNL     1      -1.079  11.948  24.425  0.00  0.00     0.044 A 
HETATM   18  C   UNL     1      -1.578  12.070  23.143  0.00  0.00     0.116 A 
HETATM   19  F   UNL     1      -2.770  11.543  22.838  0.00  0.00    -0.206 F 
HETATM   20  C   UNL     1      -0.851  12.745  22.175  0.00  0.00     0.044 A 
HETATM   21  C   UNL     1       0.406  13.291  22.484  0.00  0.00     0.033 A 
ENDBRANCH  12  15
ENDBRANCH   1  11
BRANCH   3  22
HETATM   22  O   UNL     1       4.522  12.402  26.449  0.00  0.00    -0.360 OA
HETATM   23  H   UNL     1       3.577  12.610  26.262  0.00  0.00     0.217 HD
ENDBRANCH   3  22
BRANCH  10  24
HETATM   24  C   UNL     1       8.513  15.570  21.926  0.00  0.00     0.100 C 
BRANCH  24  25
HETATM   25  C   UNL     1       8.861  14.414  20.990  0.00  0.00    -0.052 A 
HETATM   26  C   UNL     1       8.230  14.210  19.751  0.00  0.00     0.007 A 
HETATM   27  C   UNL     1       8.597  13.152  18.917  0.00  0.00     0.001 A 
HETATM   28  C   UNL     1       9.536  12.215  19.337  0.00  0.00     0.007 A 
HETATM   29  C   UNL     1      10.084  12.299  20.618  0.00  0.00    -0.061 A 
HETATM   30  C   UNL     1       9.776  13.421  21.418  0.00  0.00     0.014 A 
HETATM   31  C   UNL     1      10.975  11.191  21.102  0.00  0.00     0.048 C 
ENDBRANCH  24  25
ENDBRANCH  10  24
TORSDOF 5
ENDMDL
