MODEL 1
REMARK VINA RESULT:    -9.552      0.000      0.000
REMARK INTER + INTRA:         -14.881
REMARK INTER:                 -13.360
REMARK INTRA:                  -1.521
REMARK UNBOUND:                -1.699
REMARK  7 active torsions:
REMARK  status: ('A' for Active; 'I' for Inactive)
REMARK    1  A    between atoms: N_6  and  C_7 
REMARK    2  A    between atoms: C_12  and  N_13 
REMARK       I    between atoms: N_13  and  C_15 
REMARK    3  A    between atoms: C_15  and  C_17 
REMARK    4  A    between atoms: C_18  and  O_20 
REMARK    5  A    between atoms: C_24  and  C_28 
REMARK    6  A    between atoms: C_28  and  C_29 
REMARK    7  A    between atoms: C_33  and  O_35 
ROOT
HETATM    1  C   UNL     1      -2.846  13.434  21.624  0.00  0.00     0.066 C 
HETATM    2  C   UNL     1      -4.189  13.745  21.915  0.00  0.00     0.083 C 
HETATM    3  C   UNL     1      -4.778  14.943  21.496  0.00  0.00     0.069 C 
HETATM    4  C   UNL     1      -2.112  14.314  20.802  0.00  0.00     0.035 C 
HETATM    5  C   UNL     1      -2.630  15.592  20.497  0.00  0.00     0.020 A 
HETATM    6  C   UNL     1      -3.953  15.858  20.828  0.00  0.00     0.065 A 
HETATM    7  C   UNL     1      -2.138  16.817  19.935  0.00  0.00     0.071 A 
HETATM    8  N   UNL     1      -3.127  17.724  19.832  0.00  0.00    -0.178 NA
HETATM    9  N   UNL     1      -4.204  17.110  20.348  0.00  0.00    -0.277 N 
HETATM   10  H   UNL     1      -5.083  17.611  20.364  0.00  0.00     0.189 HD
ENDROOT
BRANCH   1  11
HETATM   11  C   UNL     1      -2.244  12.195  22.240  0.00  0.00     0.260 C 
HETATM   12  N   UNL     1      -1.360  12.279  23.361  0.00  0.00    -0.318 N 
HETATM   13  C   UNL     1      -1.022  13.572  23.956  0.00  0.00     0.159 C 
HETATM   14  O   UNL     1      -2.675  11.145  21.764  0.00  0.00    -0.267 OA
BRANCH  12  15
HETATM   15  C   UNL     1      -0.818  11.088  24.001  0.00  0.00     0.037 A 
HETATM   16  C   UNL     1      -1.308  10.615  25.231  0.00  0.00     0.032 A 
HETATM   17  C   UNL     1      -0.869   9.409  25.811  0.00  0.00     0.031 A 
HETATM   18  C   UNL     1       0.085   8.602  25.201  0.00  0.00     0.030 A 
HETATM   19  C   UNL     1       0.641   9.118  24.025  0.00  0.00     0.031 A 
HETATM   20  C   UNL     1       0.205  10.324  23.437  0.00  0.00     0.032 A 
BRANCH  18  21
HETATM   21  N   UNL     1       0.482   7.393  25.723  0.00  0.00    -0.377 N 
HETATM   22  C   UNL     1       1.849   6.853  25.631  0.00  0.00     0.149 C 
HETATM   23  C   UNL     1       1.751   5.350  25.305  0.00  0.00     0.187 C 
HETATM   24  O   UNL     1       0.941   4.636  26.258  0.00  0.00    -0.388 OA
HETATM   25  C   UNL     1      -0.382   5.201  26.323  0.00  0.00     0.187 C 
HETATM   26  C   UNL     1      -0.329   6.680  26.723  0.00  0.00     0.149 C 
ENDBRANCH  18  21
ENDBRANCH  12  15
ENDBRANCH   1  11
BRANCH   2  27
HETATM   27  O   UNL     1      -5.019  12.913  22.628  0.00  0.00    -0.360 OA
HETATM   28  H   UNL     1      -5.561  12.405  21.983  0.00  0.00     0.217 HD
ENDBRANCH   2  27
BRANCH   7  29
HETATM   29  C   UNL     1      -0.753  17.198  19.468  0.00  0.00     0.100 C 
BRANCH  29  30
HETATM   30  C   UNL     1       0.312  16.916  20.527  0.00  0.00    -0.050 A 
HETATM   31  C   UNL     1       0.115  17.152  21.897  0.00  0.00     0.007 A 
HETATM   32  C   UNL     1       1.131  16.919  22.826  0.00  0.00     0.003 A 
HETATM   33  C   UNL     1       2.389  16.518  22.396  0.00  0.00     0.037 A 
HETATM   34  C   UNL     1       2.650  16.342  21.040  0.00  0.00     0.068 A 
HETATM   35  C   UNL     1       1.614  16.520  20.110  0.00  0.00     0.044 A 
BRANCH  34  36
HETATM   36  O   UNL     1       3.964  16.071  20.779  0.00  0.00    -0.356 OA
HETATM   37  C   UNL     1       4.621  15.099  21.575  0.00  0.00     0.210 C 
ENDBRANCH  34  36
ENDBRANCH  29  30
ENDBRANCH   7  29
TORSDOF 7
ENDMDL
MODEL 2
REMARK VINA RESULT:    -9.117      1.258      1.481
REMARK INTER + INTRA:         -14.281
REMARK INTER:                 -12.752
REMARK INTRA:                  -1.529
REMARK UNBOUND:                -1.699
REMARK  7 active torsions:
REMARK  status: ('A' for Active; 'I' for Inactive)
REMARK    1  A    between atoms: N_6  and  C_7 
REMARK    2  A    between atoms: C_12  and  N_13 
REMARK       I    between atoms: N_13  and  C_15 
REMARK    3  A    between atoms: C_15  and  C_17 
REMARK    4  A    between atoms: C_18  and  O_20 
REMARK    5  A    between atoms: C_24  and  C_28 
REMARK    6  A    between atoms: C_28  and  C_29 
REMARK    7  A    between atoms: C_33  and  O_35 
ROOT
HETATM    1  C   UNL     1      -2.460  13.375  22.004  0.00  0.00     0.066 C 
HETATM    2  C   UNL     1      -3.834  13.548  22.268  0.00  0.00     0.083 C 
HETATM    3  C   UNL     1      -4.552  14.635  21.759  0.00  0.00     0.069 C 
HETATM    4  C   UNL     1      -1.824  14.270  21.120  0.00  0.00     0.035 C 
HETATM    5  C   UNL     1      -2.483  15.453  20.719  0.00  0.00     0.020 A 
HETATM    6  C   UNL     1      -3.832  15.588  21.025  0.00  0.00     0.065 A 
HETATM    7  C   UNL     1      -2.130  16.682  20.067  0.00  0.00     0.071 A 
HETATM    8  N   UNL     1      -3.216  17.457  19.895  0.00  0.00    -0.178 NA
HETATM    9  N   UNL     1      -4.220  16.763  20.452  0.00  0.00    -0.277 N 
HETATM   10  H   UNL     1      -5.152  17.159  20.429  0.00  0.00     0.189 HD
ENDROOT
BRANCH   1  11
HETATM   11  C   UNL     1      -1.726  12.263  22.712  0.00  0.00     0.260 C 
HETATM   12  N   UNL     1      -0.995  12.508  23.917  0.00  0.00    -0.318 N 
HETATM   13  C   UNL     1      -0.948  13.844  24.509  0.00  0.00     0.159 C 
HETATM   14  O   UNL     1      -1.919  11.150  22.222  0.00  0.00    -0.267 OA
BRANCH  12  15
HETATM   15  C   UNL     1      -0.330  11.433  24.642  0.00  0.00     0.037 A 
HETATM   16  C   UNL     1       1.042  11.166  24.485  0.00  0.00     0.032 A 
HETATM   17  C   UNL     1       1.721  10.202  25.254  0.00  0.00     0.031 A 
HETATM   18  C   UNL     1       1.075   9.444  26.225  0.00  0.00     0.030 A 
HETATM   19  C   UNL     1      -0.308   9.642  26.315  0.00  0.00     0.031 A 
HETATM   20  C   UNL     1      -0.995  10.607  25.550  0.00  0.00     0.032 A 
BRANCH  18  21
HETATM   21  N   UNL     1       1.733   8.540  27.026  0.00  0.00    -0.377 N 
HETATM   22  C   UNL     1       3.184   8.298  26.994  0.00  0.00     0.149 C 
HETATM   23  C   UNL     1       3.421   6.778  27.091  0.00  0.00     0.187 C 
HETATM   24  O   UNL     1       2.793   6.202  28.252  0.00  0.00    -0.388 OA
HETATM   25  C   UNL     1       1.378   6.469  28.249  0.00  0.00     0.187 C 
HETATM   26  C   UNL     1       1.103   7.977  28.232  0.00  0.00     0.149 C 
ENDBRANCH  18  21
ENDBRANCH  12  15
ENDBRANCH   1  11
BRANCH   2  27
HETATM   27  O   UNL     1      -4.569  12.681  23.040  0.00  0.00    -0.360 OA
HETATM   28  H   UNL     1      -4.900  13.181  23.820  0.00  0.00     0.217 HD
ENDBRANCH   2  27
BRANCH   7  29
HETATM   29  C   UNL     1      -0.793  17.185  19.575  0.00  0.00     0.100 C 
BRANCH  29  30
HETATM   30  C   UNL     1       0.327  16.925  20.582  0.00  0.00    -0.050 A 
HETATM   31  C   UNL     1       0.203  17.188  21.955  0.00  0.00     0.007 A 
HETATM   32  C   UNL     1       1.268  16.974  22.833  0.00  0.00     0.003 A 
HETATM   33  C   UNL     1       2.502  16.567  22.344  0.00  0.00     0.037 A 
HETATM   34  C   UNL     1       2.691  16.365  20.980  0.00  0.00     0.068 A 
HETATM   35  C   UNL     1       1.606  16.523  20.104  0.00  0.00     0.044 A 
BRANCH  34  36
HETATM   36  O   UNL     1       3.990  16.090  20.655  0.00  0.00    -0.356 OA
HETATM   37  C   UNL     1       4.763  15.326  21.564  0.00  0.00     0.210 C 
ENDBRANCH  34  36
ENDBRANCH  29  30
ENDBRANCH   7  29
TORSDOF 7
ENDMDL
MODEL 3
REMARK VINA RESULT:    -8.558      1.152      1.661
REMARK INTER + INTRA:         -13.509
REMARK INTER:                 -12.019
REMARK INTRA:                  -1.489
REMARK UNBOUND:                -1.699
REMARK  7 active torsions:
REMARK  status: ('A' for Active; 'I' for Inactive)
REMARK    1  A    between atoms: N_6  and  C_7 
REMARK    2  A    between atoms: C_12  and  N_13 
REMARK       I    between atoms: N_13  and  C_15 
REMARK    3  A    between atoms: C_15  and  C_17 
REMARK    4  A    between atoms: C_18  and  O_20 
REMARK    5  A    between atoms: C_24  and  C_28 
REMARK    6  A    between atoms: C_28  and  C_29 
REMARK    7  A    between atoms: C_33  and  O_35 
ROOT
HETATM    1  C   UNL     1      -2.745  13.440  21.536  0.00  0.00     0.066 C 
HETATM    2  C   UNL     1      -4.091  13.816  21.713  0.00  0.00     0.083 C 
HETATM    3  C   UNL     1      -4.575  15.056  21.284  0.00  0.00     0.069 C 
HETATM    4  C   UNL     1      -1.892  14.301  20.815  0.00  0.00     0.035 C 
HETATM    5  C   UNL     1      -2.311  15.614  20.509  0.00  0.00     0.020 A 
HETATM    6  C   UNL     1      -3.644  15.944  20.726  0.00  0.00     0.065 A 
HETATM    7  C   UNL     1      -1.706  16.826  20.037  0.00  0.00     0.071 A 
HETATM    8  N   UNL     1      -2.631  17.789  19.876  0.00  0.00    -0.178 NA
HETATM    9  N   UNL     1      -3.782  17.221  20.269  0.00  0.00    -0.277 N 
HETATM   10  H   UNL     1      -4.632  17.770  20.222  0.00  0.00     0.189 HD
ENDROOT
BRANCH   1  11
HETATM   11  C   UNL     1      -2.269  12.151  22.160  0.00  0.00     0.260 C 
HETATM   12  N   UNL     1      -1.511  12.151  23.373  0.00  0.00    -0.318 N 
HETATM   13  C   UNL     1      -1.184  13.403  24.054  0.00  0.00     0.159 C 
HETATM   14  O   UNL     1      -2.692  11.141  21.597  0.00  0.00    -0.267 OA
BRANCH  12  15
HETATM   15  C   UNL     1      -1.095  10.912  24.017  0.00  0.00     0.037 A 
HETATM   16  C   UNL     1      -1.582  10.530  25.280  0.00  0.00     0.032 A 
HETATM   17  C   UNL     1      -1.274   9.289  25.869  0.00  0.00     0.031 A 
HETATM   18  C   UNL     1      -0.461   8.354  25.237  0.00  0.00     0.030 A 
HETATM   19  C   UNL     1       0.100   8.772  24.025  0.00  0.00     0.031 A 
HETATM   20  C   UNL     1      -0.206  10.013  23.427  0.00  0.00     0.032 A 
BRANCH  18  21
HETATM   21  N   UNL     1      -0.196   7.114  25.771  0.00  0.00    -0.377 N 
HETATM   22  C   UNL     1      -0.414   6.748  27.179  0.00  0.00     0.149 C 
HETATM   23  C   UNL     1       0.792   5.910  27.650  0.00  0.00     0.187 C 
HETATM   24  O   UNL     1       1.019   4.762  26.812  0.00  0.00    -0.388 OA
HETATM   25  C   UNL     1       1.218   5.163  25.444  0.00  0.00     0.187 C 
HETATM   26  C   UNL     1       0.002   5.933  24.914  0.00  0.00     0.149 C 
ENDBRANCH  18  21
ENDBRANCH  12  15
ENDBRANCH   1  11
BRANCH   2  27
HETATM   27  O   UNL     1      -5.027  13.010  22.318  0.00  0.00    -0.360 OA
HETATM   28  H   UNL     1      -5.297  13.444  23.159  0.00  0.00     0.217 HD
ENDBRANCH   2  27
BRANCH   7  29
HETATM   29  C   UNL     1      -0.265  17.143  19.712  0.00  0.00     0.100 C 
BRANCH  29  30
HETATM   30  C   UNL     1       0.705  16.513  20.711  0.00  0.00    -0.050 A 
HETATM   31  C   UNL     1       1.758  15.665  20.332  0.00  0.00     0.007 A 
HETATM   32  C   UNL     1       2.595  15.079  21.283  0.00  0.00     0.003 A 
HETATM   33  C   UNL     1       2.349  15.267  22.637  0.00  0.00     0.037 A 
HETATM   34  C   UNL     1       1.272  16.042  23.059  0.00  0.00     0.068 A 
HETATM   35  C   UNL     1       0.465  16.679  22.105  0.00  0.00     0.044 A 
BRANCH  34  36
HETATM   36  O   UNL     1       1.099  16.022  24.415  0.00  0.00    -0.356 OA
HETATM   37  C   UNL     1       1.773  15.025  25.165  0.00  0.00     0.210 C 
ENDBRANCH  34  36
ENDBRANCH  29  30
ENDBRANCH   7  29
TORSDOF 7
ENDMDL
MODEL 4
REMARK VINA RESULT:    -8.264      2.975      4.686
REMARK INTER + INTRA:         -13.103
REMARK INTER:                 -11.875
REMARK INTRA:                  -1.228
REMARK UNBOUND:                -1.699
REMARK  7 active torsions:
REMARK  status: ('A' for Active; 'I' for Inactive)
REMARK    1  A    between atoms: N_6  and  C_7 
REMARK    2  A    between atoms: C_12  and  N_13 
REMARK       I    between atoms: N_13  and  C_15 
REMARK    3  A    between atoms: C_15  and  C_17 
REMARK    4  A    between atoms: C_18  and  O_20 
REMARK    5  A    between atoms: C_24  and  C_28 
REMARK    6  A    between atoms: C_28  and  C_29 
REMARK    7  A    between atoms: C_33  and  O_35 
ROOT
HETATM    1  C   UNL     1      -1.887  10.662  24.651  0.00  0.00     0.066 C 
HETATM    2  C   UNL     1      -2.380  11.115  25.891  0.00  0.00     0.083 C 
HETATM    3  C   UNL     1      -3.295  12.169  25.982  0.00  0.00     0.069 C 
HETATM    4  C   UNL     1      -2.412  11.225  23.469  0.00  0.00     0.035 C 
HETATM    5  C   UNL     1      -3.213  12.385  23.536  0.00  0.00     0.020 A 
HETATM    6  C   UNL     1      -3.654  12.806  24.786  0.00  0.00     0.065 A 
HETATM    7  C   UNL     1      -3.718  13.366  22.620  0.00  0.00     0.071 A 
HETATM    8  N   UNL     1      -4.500  14.256  23.258  0.00  0.00    -0.178 NA
HETATM    9  N   UNL     1      -4.463  13.876  24.545  0.00  0.00    -0.277 N 
HETATM   10  H   UNL     1      -5.000  14.407  25.220  0.00  0.00     0.189 HD
ENDROOT
BRANCH   1  11
HETATM   11  C   UNL     1      -0.792   9.624  24.648  0.00  0.00     0.260 C 
HETATM   12  N   UNL     1       0.574   9.989  24.431  0.00  0.00    -0.318 N 
HETATM   13  C   UNL     1       0.954  11.385  24.219  0.00  0.00     0.159 C 
HETATM   14  O   UNL     1      -1.176   8.496  24.958  0.00  0.00    -0.267 OA
BRANCH  12  15
HETATM   15  C   UNL     1       1.647   9.005  24.483  0.00  0.00     0.037 A 
HETATM   16  C   UNL     1       1.825   8.042  23.473  0.00  0.00     0.032 A 
HETATM   17  C   UNL     1       2.918   7.154  23.454  0.00  0.00     0.031 A 
HETATM   18  C   UNL     1       3.898   7.169  24.440  0.00  0.00     0.030 A 
HETATM   19  C   UNL     1       3.671   8.062  25.495  0.00  0.00     0.031 A 
HETATM   20  C   UNL     1       2.580   8.956  25.520  0.00  0.00     0.032 A 
BRANCH  18  21
HETATM   21  N   UNL     1       5.002   6.350  24.407  0.00  0.00    -0.377 N 
HETATM   22  C   UNL     1       6.304   6.726  23.833  0.00  0.00     0.149 C 
HETATM   23  C   UNL     1       6.843   5.522  23.035  0.00  0.00     0.187 C 
HETATM   24  O   UNL     1       6.920   4.327  23.836  0.00  0.00    -0.388 OA
HETATM   25  C   UNL     1       5.629   4.001  24.384  0.00  0.00     0.187 C 
HETATM   26  C   UNL     1       5.094   5.147  25.251  0.00  0.00     0.149 C 
ENDBRANCH  18  21
ENDBRANCH  12  15
ENDBRANCH   1  11
BRANCH   2  27
HETATM   27  O   UNL     1      -2.006  10.571  27.097  0.00  0.00    -0.360 OA
HETATM   28  H   UNL     1      -2.496   9.726  27.210  0.00  0.00     0.217 HD
ENDBRANCH   2  27
BRANCH   7  29
HETATM   29  C   UNL     1      -3.509  13.520  21.131  0.00  0.00     0.100 C 
BRANCH  29  30
HETATM   30  C   UNL     1      -3.012  14.917  20.759  0.00  0.00    -0.050 A 
HETATM   31  C   UNL     1      -3.698  15.768  19.878  0.00  0.00     0.007 A 
HETATM   32  C   UNL     1      -3.186  17.020  19.534  0.00  0.00     0.003 A 
HETATM   33  C   UNL     1      -1.941  17.416  20.003  0.00  0.00     0.037 A 
HETATM   34  C   UNL     1      -1.193  16.573  20.821  0.00  0.00     0.068 A 
HETATM   35  C   UNL     1      -1.732  15.339  21.215  0.00  0.00     0.044 A 
BRANCH  34  36
HETATM   36  O   UNL     1       0.056  17.059  21.090  0.00  0.00    -0.356 OA
HETATM   37  C   UNL     1       0.985  17.153  20.023  0.00  0.00     0.210 C 
ENDBRANCH  34  36
ENDBRANCH  29  30
ENDBRANCH   7  29
TORSDOF 7
ENDMDL
MODEL 5
REMARK VINA RESULT:    -8.252      2.080      2.866
REMARK INTER + INTRA:         -13.087
REMARK INTER:                 -11.663
REMARK INTRA:                  -1.424
REMARK UNBOUND:                -1.699
REMARK  7 active torsions:
REMARK  status: ('A' for Active; 'I' for Inactive)
REMARK    1  A    between atoms: N_6  and  C_7 
REMARK    2  A    between atoms: C_12  and  N_13 
REMARK       I    between atoms: N_13  and  C_15 
REMARK    3  A    between atoms: C_15  and  C_17 
REMARK    4  A    between atoms: C_18  and  O_20 
REMARK    5  A    between atoms: C_24  and  C_28 
REMARK    6  A    between atoms: C_28  and  C_29 
REMARK    7  A    between atoms: C_33  and  O_35 
ROOT
HETATM    1  C   UNL     1      -1.140  12.550  22.287  0.00  0.00     0.066 C 
HETATM    2  C   UNL     1      -2.341  12.337  21.581  0.00  0.00     0.083 C 
HETATM    3  C   UNL     1      -2.917  13.332  20.785  0.00  0.00     0.069 C 
HETATM    4  C   UNL     1      -0.454  13.768  22.099  0.00  0.00     0.035 C 
HETATM    5  C   UNL     1      -1.086  14.837  21.428  0.00  0.00     0.020 A 
HETATM    6  C   UNL     1      -2.282  14.582  20.769  0.00  0.00     0.065 A 
HETATM    7  C   UNL     1      -0.859  16.242  21.244  0.00  0.00     0.071 A 
HETATM    8  N   UNL     1      -1.795  16.774  20.438  0.00  0.00    -0.178 NA
HETATM    9  N   UNL     1      -2.613  15.750  20.149  0.00  0.00    -0.277 N 
HETATM   10  H   UNL     1      -3.400  15.921  19.535  0.00  0.00     0.189 HD
ENDROOT
BRANCH   1  11
HETATM   11  C   UNL     1      -0.666  11.482  23.241  0.00  0.00     0.260 C 
HETATM   12  N   UNL     1      -0.831  11.625  24.654  0.00  0.00    -0.318 N 
HETATM   13  C   UNL     1      -1.480  12.807  25.219  0.00  0.00     0.159 C 
HETATM   14  O   UNL     1      -0.249  10.467  22.682  0.00  0.00    -0.267 OA
BRANCH  12  15
HETATM   15  C   UNL     1      -0.431  10.575  25.583  0.00  0.00     0.037 A 
HETATM   16  C   UNL     1       0.886  10.085  25.629  0.00  0.00     0.032 A 
HETATM   17  C   UNL     1       1.315   9.148  26.589  0.00  0.00     0.031 A 
HETATM   18  C   UNL     1       0.457   8.642  27.560  0.00  0.00     0.030 A 
HETATM   19  C   UNL     1      -0.876   9.057  27.455  0.00  0.00     0.031 A 
HETATM   20  C   UNL     1      -1.312   9.997  26.498  0.00  0.00     0.032 A 
BRANCH  18  21
HETATM   21  N   UNL     1       0.872   7.772  28.541  0.00  0.00    -0.377 N 
HETATM   22  C   UNL     1       0.209   6.497  28.860  0.00  0.00     0.149 C 
HETATM   23  C   UNL     1       0.157   6.353  30.395  0.00  0.00     0.187 C 
HETATM   24  O   UNL     1       1.460   6.461  30.997  0.00  0.00    -0.388 OA
HETATM   25  C   UNL     1       2.076   7.716  30.652  0.00  0.00     0.187 C 
HETATM   26  C   UNL     1       2.217   7.861  29.132  0.00  0.00     0.149 C 
ENDBRANCH  18  21
ENDBRANCH  12  15
ENDBRANCH   1  11
BRANCH   2  27
HETATM   27  O   UNL     1      -3.039  11.154  21.621  0.00  0.00    -0.360 OA
HETATM   28  H   UNL     1      -2.434  10.438  21.323  0.00  0.00     0.217 HD
ENDBRANCH   2  27
BRANCH   7  29
HETATM   29  C   UNL     1       0.223  17.143  21.793  0.00  0.00     0.100 C 
BRANCH  29  30
HETATM   30  C   UNL     1       1.623  16.663  21.412  0.00  0.00    -0.050 A 
HETATM   31  C   UNL     1       2.081  16.603  20.086  0.00  0.00     0.007 A 
HETATM   32  C   UNL     1       3.354  16.119  19.779  0.00  0.00     0.003 A 
HETATM   33  C   UNL     1       4.167  15.613  20.785  0.00  0.00     0.037 A 
HETATM   34  C   UNL     1       3.725  15.585  22.105  0.00  0.00     0.068 A 
HETATM   35  C   UNL     1       2.469  16.125  22.423  0.00  0.00     0.044 A 
BRANCH  34  36
HETATM   36  O   UNL     1       4.591  14.943  22.946  0.00  0.00    -0.356 OA
HETATM   37  C   UNL     1       5.967  14.924  22.607  0.00  0.00     0.210 C 
ENDBRANCH  34  36
ENDBRANCH  29  30
ENDBRANCH   7  29
TORSDOF 7
ENDMDL
MODEL 6
REMARK VINA RESULT:    -8.176      2.052      2.630
REMARK INTER + INTRA:         -12.981
REMARK INTER:                 -11.682
REMARK INTRA:                  -1.299
REMARK UNBOUND:                -1.699
REMARK  7 active torsions:
REMARK  status: ('A' for Active; 'I' for Inactive)
REMARK    1  A    between atoms: N_6  and  C_7 
REMARK    2  A    between atoms: C_12  and  N_13 
REMARK       I    between atoms: N_13  and  C_15 
REMARK    3  A    between atoms: C_15  and  C_17 
REMARK    4  A    between atoms: C_18  and  O_20 
REMARK    5  A    between atoms: C_24  and  C_28 
REMARK    6  A    between atoms: C_28  and  C_29 
REMARK    7  A    between atoms: C_33  and  O_35 
ROOT
HETATM    1  C   UNL     1      -2.301  13.965  22.760  0.00  0.00     0.066 C 
HETATM    2  C   UNL     1      -3.593  13.945  22.198  0.00  0.00     0.083 C 
HETATM    3  C   UNL     1      -3.945  14.772  21.127  0.00  0.00     0.069 C 
HETATM    4  C   UNL     1      -1.313  14.770  22.156  0.00  0.00     0.035 C 
HETATM    5  C   UNL     1      -1.680  15.721  21.179  0.00  0.00     0.020 A 
HETATM    6  C   UNL     1      -2.974  15.676  20.674  0.00  0.00     0.065 A 
HETATM    7  C   UNL     1      -1.070  16.843  20.526  0.00  0.00     0.071 A 
HETATM    8  N   UNL     1      -1.902  17.371  19.610  0.00  0.00    -0.178 NA
HETATM    9  N   UNL     1      -3.019  16.633  19.704  0.00  0.00    -0.277 N 
HETATM   10  H   UNL     1      -3.794  16.850  19.088  0.00  0.00     0.189 HD
ENDROOT
BRANCH   1  11
HETATM   11  C   UNL     1      -2.046  13.154  24.007  0.00  0.00     0.260 C 
HETATM   12  N   UNL     1      -1.636  11.786  23.931  0.00  0.00    -0.318 N 
HETATM   13  C   UNL     1      -1.436  11.133  22.638  0.00  0.00     0.159 C 
HETATM   14  O   UNL     1      -2.113  13.810  25.048  0.00  0.00    -0.267 OA
BRANCH  12  15
HETATM   15  C   UNL     1      -1.331  11.009  25.126  0.00  0.00     0.037 A 
HETATM   16  C   UNL     1      -2.293  10.764  26.121  0.00  0.00     0.032 A 
HETATM   17  C   UNL     1      -2.046   9.929  27.227  0.00  0.00     0.031 A 
HETATM   18  C   UNL     1      -0.826   9.290  27.411  0.00  0.00     0.030 A 
HETATM   19  C   UNL     1       0.163   9.609  26.472  0.00  0.00     0.031 A 
HETATM   20  C   UNL     1      -0.077  10.442  25.360  0.00  0.00     0.032 A 
BRANCH  18  21
HETATM   21  N   UNL     1      -0.586   8.425  28.453  0.00  0.00    -0.377 N 
HETATM   22  C   UNL     1      -0.467   8.831  29.863  0.00  0.00     0.149 C 
HETATM   23  C   UNL     1       0.706   8.053  30.491  0.00  0.00     0.187 C 
HETATM   24  O   UNL     1       0.560   6.628  30.339  0.00  0.00    -0.388 OA
HETATM   25  C   UNL     1       0.438   6.276  28.948  0.00  0.00     0.187 C 
HETATM   26  C   UNL     1      -0.769   6.972  28.308  0.00  0.00     0.149 C 
ENDBRANCH  18  21
ENDBRANCH  12  15
ENDBRANCH   1  11
BRANCH   2  27
HETATM   27  O   UNL     1      -4.601  13.128  22.652  0.00  0.00    -0.360 OA
HETATM   28  H   UNL     1      -4.941  13.511  23.492  0.00  0.00     0.217 HD
ENDBRANCH   2  27
BRANCH   7  29
HETATM   29  C   UNL     1       0.294  17.466  20.711  0.00  0.00     0.100 C 
BRANCH  29  30
HETATM   30  C   UNL     1       1.374  16.420  20.987  0.00  0.00    -0.050 A 
HETATM   31  C   UNL     1       1.875  15.553  20.003  0.00  0.00     0.007 A 
HETATM   32  C   UNL     1       2.833  14.585  20.309  0.00  0.00     0.003 A 
HETATM   33  C   UNL     1       3.253  14.412  21.621  0.00  0.00     0.037 A 
HETATM   34  C   UNL     1       2.730  15.202  22.641  0.00  0.00     0.068 A 
HETATM   35  C   UNL     1       1.811  16.214  22.326  0.00  0.00     0.044 A 
BRANCH  34  36
HETATM   36  O   UNL     1       3.154  14.820  23.883  0.00  0.00    -0.356 OA
HETATM   37  C   UNL     1       2.512  13.719  24.504  0.00  0.00     0.210 C 
ENDBRANCH  34  36
ENDBRANCH  29  30
ENDBRANCH   7  29
TORSDOF 7
ENDMDL
MODEL 7
REMARK VINA RESULT:    -8.124      1.830      4.666
REMARK INTER + INTRA:         -12.911
REMARK INTER:                 -11.488
REMARK INTRA:                  -1.423
REMARK UNBOUND:                -1.699
REMARK  7 active torsions:
REMARK  status: ('A' for Active; 'I' for Inactive)
REMARK    1  A    between atoms: N_6  and  C_7 
REMARK    2  A    between atoms: C_12  and  N_13 
REMARK       I    between atoms: N_13  and  C_15 
REMARK    3  A    between atoms: C_15  and  C_17 
REMARK    4  A    between atoms: C_18  and  O_20 
REMARK    5  A    between atoms: C_24  and  C_28 
REMARK    6  A    between atoms: C_28  and  C_29 
REMARK    7  A    between atoms: C_33  and  O_35 
ROOT
HETATM    1  C   UNL     1       0.780  14.534  22.460  0.00  0.00     0.066 C 
HETATM    2  C   UNL     1       2.041  14.772  21.877  0.00  0.00     0.083 C 
HETATM    3  C   UNL     1       2.243  15.792  20.942  0.00  0.00     0.069 C 
HETATM    4  C   UNL     1      -0.278  15.418  22.163  0.00  0.00     0.035 C 
HETATM    5  C   UNL     1      -0.142  16.354  21.114  0.00  0.00     0.020 A 
HETATM    6  C   UNL     1       1.117  16.533  20.555  0.00  0.00     0.065 A 
HETATM    7  C   UNL     1      -1.004  17.220  20.363  0.00  0.00     0.071 A 
HETATM    8  N   UNL     1      -0.294  17.952  19.485  0.00  0.00    -0.178 NA
HETATM    9  N   UNL     1       0.972  17.538  19.646  0.00  0.00    -0.277 N 
HETATM   10  H   UNL     1       1.696  17.969  19.083  0.00  0.00     0.189 HD
ENDROOT
BRANCH   1  11
HETATM   11  C   UNL     1       0.611  13.322  23.342  0.00  0.00     0.260 C 
HETATM   12  N   UNL     1      -0.126  12.179  22.898  0.00  0.00    -0.318 N 
HETATM   13  C   UNL     1      -0.729  12.145  21.566  0.00  0.00     0.159 C 
HETATM   14  O   UNL     1       1.252  13.379  24.392  0.00  0.00    -0.267 OA
BRANCH  12  15
HETATM   15  C   UNL     1      -0.247  10.980  23.717  0.00  0.00     0.037 A 
HETATM   16  C   UNL     1       0.509   9.823  23.460  0.00  0.00     0.032 A 
HETATM   17  C   UNL     1       0.482   8.695  24.302  0.00  0.00     0.031 A 
HETATM   18  C   UNL     1      -0.301   8.650  25.450  0.00  0.00     0.030 A 
HETATM   19  C   UNL     1      -1.125   9.763  25.655  0.00  0.00     0.031 A 
HETATM   20  C   UNL     1      -1.102  10.898  24.818  0.00  0.00     0.032 A 
BRANCH  18  21
HETATM   21  N   UNL     1      -0.296   7.581  26.316  0.00  0.00    -0.377 N 
HETATM   22  C   UNL     1      -0.865   7.603  27.673  0.00  0.00     0.149 C 
HETATM   23  C   UNL     1       0.108   6.865  28.614  0.00  0.00     0.187 C 
HETATM   24  O   UNL     1       0.397   5.529  28.161  0.00  0.00    -0.388 OA
HETATM   25  C   UNL     1       0.942   5.552  26.828  0.00  0.00     0.187 C 
HETATM   26  C   UNL     1      -0.034   6.211  25.846  0.00  0.00     0.149 C 
ENDBRANCH  18  21
ENDBRANCH  12  15
ENDBRANCH   1  11
BRANCH   2  27
HETATM   27  O   UNL     1       3.160  14.028  22.170  0.00  0.00    -0.360 OA
HETATM   28  H   UNL     1       2.955  13.476  22.958  0.00  0.00     0.217 HD
ENDBRANCH   2  27
BRANCH   7  29
HETATM   29  C   UNL     1      -2.501  17.413  20.425  0.00  0.00     0.100 C 
BRANCH  29  30
HETATM   30  C   UNL     1      -3.261  16.099  20.246  0.00  0.00    -0.050 A 
HETATM   31  C   UNL     1      -3.893  15.733  19.047  0.00  0.00     0.007 A 
HETATM   32  C   UNL     1      -4.612  14.541  18.940  0.00  0.00     0.003 A 
HETATM   33  C   UNL     1      -4.777  13.726  20.053  0.00  0.00     0.037 A 
HETATM   34  C   UNL     1      -4.228  14.086  21.281  0.00  0.00     0.068 A 
HETATM   35  C   UNL     1      -3.457  15.254  21.375  0.00  0.00     0.044 A 
BRANCH  34  36
HETATM   36  O   UNL     1      -4.589  13.243  22.295  0.00  0.00    -0.356 OA
HETATM   37  C   UNL     1      -3.763  13.183  23.445  0.00  0.00     0.210 C 
ENDBRANCH  34  36
ENDBRANCH  29  30
ENDBRANCH   7  29
TORSDOF 7
ENDMDL
MODEL 8
REMARK VINA RESULT:    -7.641      3.352      5.727
REMARK INTER + INTRA:         -12.244
REMARK INTER:                 -10.545
REMARK INTRA:                  -1.699
REMARK UNBOUND:                -1.699
REMARK  7 active torsions:
REMARK  status: ('A' for Active; 'I' for Inactive)
REMARK    1  A    between atoms: N_6  and  C_7 
REMARK    2  A    between atoms: C_12  and  N_13 
REMARK       I    between atoms: N_13  and  C_15 
REMARK    3  A    between atoms: C_15  and  C_17 
REMARK    4  A    between atoms: C_18  and  O_20 
REMARK    5  A    between atoms: C_24  and  C_28 
REMARK    6  A    between atoms: C_28  and  C_29 
REMARK    7  A    between atoms: C_33  and  O_35 
ROOT
HETATM    1  C   UNL     1      -1.180   9.672  25.697  0.00  0.00     0.066 C 
HETATM    2  C   UNL     1      -1.465   9.914  27.056  0.00  0.00     0.083 C 
HETATM    3  C   UNL     1      -2.411  10.865  27.454  0.00  0.00     0.069 C 
HETATM    4  C   UNL     1      -1.946  10.336  24.717  0.00  0.00     0.035 C 
HETATM    5  C   UNL     1      -2.793  11.404  25.088  0.00  0.00     0.020 A 
HETATM    6  C   UNL     1      -3.022  11.619  26.442  0.00  0.00     0.065 A 
HETATM    7  C   UNL     1      -3.517  12.449  24.423  0.00  0.00     0.071 A 
HETATM    8  N   UNL     1      -4.223  13.176  25.308  0.00  0.00    -0.178 NA
HETATM    9  N   UNL     1      -3.927  12.636  26.501  0.00  0.00    -0.277 N 
HETATM   10  H   UNL     1      -4.362  13.026  27.328  0.00  0.00     0.189 HD
ENDROOT
BRANCH   1  11
HETATM   11  C   UNL     1      -0.042   8.742  25.355  0.00  0.00     0.260 C 
HETATM   12  N   UNL     1       1.244   9.250  24.990  0.00  0.00    -0.318 N 
HETATM   13  C   UNL     1       1.501  10.689  24.950  0.00  0.00     0.159 C 
HETATM   14  O   UNL     1      -0.302   7.552  25.534  0.00  0.00    -0.267 OA
BRANCH  12  15
HETATM   15  C   UNL     1       2.368   8.363  24.714  0.00  0.00     0.037 A 
HETATM   16  C   UNL     1       3.323   8.044  25.695  0.00  0.00     0.032 A 
HETATM   17  C   UNL     1       4.353   7.109  25.477  0.00  0.00     0.031 A 
HETATM   18  C   UNL     1       4.494   6.436  24.268  0.00  0.00     0.030 A 
HETATM   19  C   UNL     1       3.603   6.823  23.260  0.00  0.00     0.031 A 
HETATM   20  C   UNL     1       2.567   7.758  23.472  0.00  0.00     0.032 A 
BRANCH  18  21
HETATM   21  N   UNL     1       5.457   5.477  24.056  0.00  0.00    -0.377 N 
HETATM   22  C   UNL     1       6.698   5.695  23.295  0.00  0.00     0.149 C 
HETATM   23  C   UNL     1       6.941   4.457  22.408  0.00  0.00     0.187 C 
HETATM   24  O   UNL     1       6.971   3.237  23.171  0.00  0.00    -0.388 OA
HETATM   25  C   UNL     1       5.745   3.068  23.907  0.00  0.00     0.187 C 
HETATM   26  C   UNL     1       5.509   4.245  24.860  0.00  0.00     0.149 C 
ENDBRANCH  18  21
ENDBRANCH  12  15
ENDBRANCH   1  11
BRANCH   2  27
HETATM   27  O   UNL     1      -0.842   9.252  28.087  0.00  0.00    -0.360 OA
HETATM   28  H   UNL     1      -0.640   9.912  28.788  0.00  0.00     0.217 HD
ENDBRANCH   2  27
BRANCH   7  29
HETATM   29  C   UNL     1      -3.594  12.813  22.959  0.00  0.00     0.100 C 
BRANCH  29  30
HETATM   30  C   UNL     1      -2.230  12.746  22.274  0.00  0.00    -0.050 A 
HETATM   31  C   UNL     1      -1.929  11.840  21.245  0.00  0.00     0.007 A 
HETATM   32  C   UNL     1      -0.656  11.785  20.675  0.00  0.00     0.003 A 
HETATM   33  C   UNL     1       0.365  12.583  21.176  0.00  0.00     0.037 A 
HETATM   34  C   UNL     1       0.131  13.444  22.245  0.00  0.00     0.068 A 
HETATM   35  C   UNL     1      -1.163  13.542  22.779  0.00  0.00     0.044 A 
BRANCH  34  36
HETATM   36  O   UNL     1       1.265  14.059  22.694  0.00  0.00    -0.356 OA
HETATM   37  C   UNL     1       2.375  14.149  21.816  0.00  0.00     0.210 C 
ENDBRANCH  34  36
ENDBRANCH  29  30
ENDBRANCH   7  29
TORSDOF 7
ENDMDL
