MODEL 1
REMARK VINA RESULT:    -8.165      0.000      0.000
REMARK INTER + INTRA:         -12.052
REMARK INTER:                 -10.541
REMARK INTRA:                  -1.511
REMARK UNBOUND:                -1.262
REMARK  6 active torsions:
REMARK  status: ('A' for Active; 'I' for Inactive)
REMARK    1  A    between atoms: C_2  and  C_3 
REMARK    2  A    between atoms: C_3  and  C_4 
REMARK    3  A    between atoms: C_10  and  O_11 
REMARK    4  A    between atoms: C_12  and  C_13 
REMARK       I    between atoms: C_13  and  N_15 
REMARK    5  A    between atoms: N_15  and  C_17 
REMARK    6  A    between atoms: C_20  and  C_21 
ROOT
HETATM    1  C   UNL     1      10.302  13.562  23.242  0.00  0.00     0.260 C 
HETATM    2  O   UNL     1      11.516  13.432  23.042  0.00  0.00    -0.267 OA
HETATM    3  N   UNL     1       9.751  14.847  23.419  0.00  0.00    -0.318 N 
HETATM    4  C   UNL     1      10.626  16.013  23.338  0.00  0.00     0.159 C 
ENDROOT
BRANCH   1   5
HETATM    5  C   UNL     1       9.481  12.300  23.157  0.00  0.00     0.066 C 
HETATM    6  C   UNL     1       9.600  11.161  23.962  0.00  0.00     0.083 C 
HETATM    7  C   UNL     1       8.742  10.055  23.853  0.00  0.00     0.069 C 
HETATM    8  C   UNL     1       7.860  10.050  22.777  0.00  0.00     0.065 A 
HETATM    9  N   UNL     1       6.991   9.096  22.334  0.00  0.00    -0.277 N 
HETATM   10  C   UNL     1       7.771  11.093  21.866  0.00  0.00     0.019 A 
HETATM   11  N   UNL     1       6.385   9.398  21.184  0.00  0.00    -0.178 NA
HETATM   12  H   UNL     1       6.796   8.191  22.754  0.00  0.00     0.189 HD
HETATM   13  C   UNL     1       6.856  10.621  20.888  0.00  0.00     0.067 A 
HETATM   14  C   UNL     1       8.561  12.244  22.080  0.00  0.00     0.035 C 
BRANCH   6  15
HETATM   15  O   UNL     1      10.656  10.973  24.804  0.00  0.00    -0.360 OA
HETATM   16  H   UNL     1      10.760  10.016  24.939  0.00  0.00     0.217 HD
ENDBRANCH   6  15
BRANCH  13  17
HETATM   17  C   UNL     1       6.419  11.270  19.613  0.00  0.00     0.062 C 
BRANCH  17  18
HETATM   18  C   UNL     1       4.893  11.304  19.487  0.00  0.00     0.002 C 
HETATM   19  C   UNL     1       4.437  10.944  18.087  0.00  0.00     0.005 C 
ENDBRANCH  17  18
ENDBRANCH  13  17
ENDBRANCH   1   5
BRANCH   3  20
HETATM   20  C   UNL     1       8.409  15.137  23.699  0.00  0.00     0.037 C 
HETATM   21  C   UNL     1       7.956  14.977  25.003  0.00  0.00     0.030 C 
HETATM   22  C   UNL     1       6.608  15.148  25.296  0.00  0.00     0.010 C 
HETATM   23  C   UNL     1       5.700  15.599  24.324  0.00  0.00    -0.054 C 
HETATM   24  C   UNL     1       6.212  15.881  23.042  0.00  0.00     0.010 C 
HETATM   25  C   UNL     1       7.558  15.652  22.728  0.00  0.00     0.030 C 
BRANCH  23  26
HETATM   26  C   UNL     1       4.202  15.690  24.631  0.00  0.00     0.022 C 
HETATM   27  C   UNL     1       3.290  15.685  23.384  0.00  0.00     0.039 C 
HETATM   28  C   UNL     1       3.272  14.299  22.729  0.00  0.00     0.272 C 
HETATM   29  N   UNL     1       2.811  13.240  23.636  0.00  0.00     0.084 N 
HETATM   30  C   UNL     1       1.369  13.306  23.859  0.00  0.00     0.309 C 
HETATM   31  C   UNL     1       3.576  13.236  24.892  0.00  0.00     0.272 C 
HETATM   32  C   UNL     1       3.658  14.603  25.580  0.00  0.00     0.039 C 
ENDBRANCH  23  26
ENDBRANCH   3  20
TORSDOF 6
ENDMDL
MODEL 2
REMARK VINA RESULT:    -7.977      2.429      3.451
REMARK INTER + INTRA:         -11.803
REMARK INTER:                 -10.767
REMARK INTRA:                  -1.036
REMARK UNBOUND:                -1.262
REMARK  6 active torsions:
REMARK  status: ('A' for Active; 'I' for Inactive)
REMARK    1  A    between atoms: C_2  and  C_3 
REMARK    2  A    between atoms: C_3  and  C_4 
REMARK    3  A    between atoms: C_10  and  O_11 
REMARK    4  A    between atoms: C_12  and  C_13 
REMARK       I    between atoms: C_13  and  N_15 
REMARK    5  A    between atoms: N_15  and  C_17 
REMARK    6  A    between atoms: C_20  and  C_21 
ROOT
HETATM    1  C   UNL     1      11.082  13.971  25.473  0.00  0.00     0.260 C 
HETATM    2  O   UNL     1      12.099  14.078  26.172  0.00  0.00    -0.267 OA
HETATM    3  N   UNL     1       9.953  14.767  25.748  0.00  0.00    -0.318 N 
HETATM    4  C   UNL     1      10.010  15.729  26.844  0.00  0.00     0.159 C 
ENDROOT
BRANCH   1   5
HETATM    5  C   UNL     1      11.195  13.052  24.283  0.00  0.00     0.066 C 
HETATM    6  C   UNL     1      11.572  13.403  22.980  0.00  0.00     0.083 C 
HETATM    7  C   UNL     1      11.714  12.462  21.948  0.00  0.00     0.069 C 
HETATM    8  C   UNL     1      11.290  11.165  22.218  0.00  0.00     0.065 A 
HETATM    9  N   UNL     1      11.193  10.067  21.414  0.00  0.00    -0.277 N 
HETATM   10  C   UNL     1      10.791  10.773  23.453  0.00  0.00     0.019 A 
HETATM   11  N   UNL     1      10.622   9.009  21.996  0.00  0.00    -0.178 NA
HETATM   12  H   UNL     1      11.464   9.987  20.437  0.00  0.00     0.189 HD
HETATM   13  C   UNL     1      10.372   9.433  23.246  0.00  0.00     0.067 A 
HETATM   14  C   UNL     1      10.779  11.715  24.505  0.00  0.00     0.035 C 
BRANCH   6  15
HETATM   15  O   UNL     1      11.673  14.701  22.577  0.00  0.00    -0.360 OA
HETATM   16  H   UNL     1      12.619  14.917  22.512  0.00  0.00     0.217 HD
ENDBRANCH   6  15
BRANCH  13  17
HETATM   17  C   UNL     1       9.678   8.504  24.192  0.00  0.00     0.062 C 
BRANCH  17  18
HETATM   18  C   UNL     1       8.237   8.220  23.756  0.00  0.00     0.002 C 
HETATM   19  C   UNL     1       7.395   9.480  23.742  0.00  0.00     0.005 C 
ENDBRANCH  17  18
ENDBRANCH  13  17
ENDBRANCH   1   5
BRANCH   3  20
HETATM   20  C   UNL     1       8.725  14.717  25.073  0.00  0.00     0.037 C 
HETATM   21  C   UNL     1       8.602  15.407  23.873  0.00  0.00     0.030 C 
HETATM   22  C   UNL     1       7.369  15.472  23.233  0.00  0.00     0.010 C 
HETATM   23  C   UNL     1       6.260  14.753  23.708  0.00  0.00    -0.054 C 
HETATM   24  C   UNL     1       6.449  13.956  24.854  0.00  0.00     0.010 C 
HETATM   25  C   UNL     1       7.673  13.936  25.535  0.00  0.00     0.030 C 
BRANCH  23  26
HETATM   26  C   UNL     1       4.884  14.909  23.053  0.00  0.00     0.022 C 
HETATM   27  C   UNL     1       4.070  13.601  22.949  0.00  0.00     0.039 C 
HETATM   28  C   UNL     1       3.578  13.156  24.332  0.00  0.00     0.272 C 
HETATM   29  N   UNL     1       2.742  14.163  24.997  0.00  0.00     0.084 N 
HETATM   30  C   UNL     1       1.412  14.246  24.397  0.00  0.00     0.309 C 
HETATM   31  C   UNL     1       3.415  15.469  25.055  0.00  0.00     0.272 C 
HETATM   32  C   UNL     1       3.959  15.955  23.707  0.00  0.00     0.039 C 
ENDBRANCH  23  26
ENDBRANCH   3  20
TORSDOF 6
ENDMDL
MODEL 3
REMARK VINA RESULT:    -7.956      2.146      5.442
REMARK INTER + INTRA:         -11.777
REMARK INTER:                  -9.964
REMARK INTRA:                  -1.813
REMARK UNBOUND:                -1.262
REMARK  6 active torsions:
REMARK  status: ('A' for Active; 'I' for Inactive)
REMARK    1  A    between atoms: C_2  and  C_3 
REMARK    2  A    between atoms: C_3  and  C_4 
REMARK    3  A    between atoms: C_10  and  O_11 
REMARK    4  A    between atoms: C_12  and  C_13 
REMARK       I    between atoms: C_13  and  N_15 
REMARK    5  A    between atoms: N_15  and  C_17 
REMARK    6  A    between atoms: C_20  and  C_21 
ROOT
HETATM    1  C   UNL     1      11.740  13.467  22.745  0.00  0.00     0.260 C 
HETATM    2  O   UNL     1      12.906  13.878  22.814  0.00  0.00    -0.267 OA
HETATM    3  N   UNL     1      11.356  12.613  21.692  0.00  0.00    -0.318 N 
HETATM    4  C   UNL     1      12.353  12.204  20.708  0.00  0.00     0.159 C 
ENDROOT
BRANCH   1   5
HETATM    5  C   UNL     1      10.842  13.838  23.898  0.00  0.00     0.066 C 
HETATM    6  C   UNL     1      11.043  13.543  25.252  0.00  0.00     0.083 C 
HETATM    7  C   UNL     1      10.181  13.991  26.266  0.00  0.00     0.069 C 
HETATM    8  C   UNL     1       8.999  14.601  25.861  0.00  0.00     0.065 A 
HETATM    9  N   UNL     1       7.923  15.039  26.578  0.00  0.00    -0.277 N 
HETATM   10  C   UNL     1       8.676  14.818  24.528  0.00  0.00     0.019 A 
HETATM   11  N   UNL     1       6.904  15.468  25.831  0.00  0.00    -0.178 NA
HETATM   12  H   UNL     1       7.807  15.032  27.588  0.00  0.00     0.189 HD
HETATM   13  C   UNL     1       7.355  15.336  24.572  0.00  0.00     0.067 A 
HETATM   14  C   UNL     1       9.623  14.467  23.540  0.00  0.00     0.035 C 
BRANCH   6  15
HETATM   15  O   UNL     1      12.000  12.668  25.671  0.00  0.00    -0.360 OA
HETATM   16  H   UNL     1      12.574  13.137  26.301  0.00  0.00     0.217 HD
ENDBRANCH   6  15
BRANCH  13  17
HETATM   17  C   UNL     1       6.441  15.688  23.441  0.00  0.00     0.062 C 
BRANCH  17  18
HETATM   18  C   UNL     1       6.225  14.503  22.495  0.00  0.00     0.002 C 
HETATM   19  C   UNL     1       4.910  13.799  22.767  0.00  0.00     0.005 C 
ENDBRANCH  17  18
ENDBRANCH  13  17
ENDBRANCH   1   5
BRANCH   3  20
HETATM   20  C   UNL     1      10.066  12.113  21.464  0.00  0.00     0.037 C 
HETATM   21  C   UNL     1       9.380  12.547  20.336  0.00  0.00     0.030 C 
HETATM   22  C   UNL     1       8.059  12.160  20.137  0.00  0.00     0.010 C 
HETATM   23  C   UNL     1       7.429  11.239  20.990  0.00  0.00    -0.054 C 
HETATM   24  C   UNL     1       8.193  10.715  22.051  0.00  0.00     0.010 C 
HETATM   25  C   UNL     1       9.504  11.148  22.290  0.00  0.00     0.030 C 
BRANCH  23  26
HETATM   26  C   UNL     1       5.946  10.897  20.818  0.00  0.00     0.022 C 
HETATM   27  C   UNL     1       5.426  11.011  19.368  0.00  0.00     0.039 C 
HETATM   28  C   UNL     1       5.989   9.881  18.497  0.00  0.00     0.272 C 
HETATM   29  N   UNL     1       5.651   8.543  19.001  0.00  0.00     0.084 N 
HETATM   30  C   UNL     1       4.247   8.214  18.764  0.00  0.00     0.309 C 
HETATM   31  C   UNL     1       6.037   8.385  20.410  0.00  0.00     0.272 C 
HETATM   32  C   UNL     1       5.530   9.503  21.329  0.00  0.00     0.039 C 
ENDBRANCH  23  26
ENDBRANCH   3  20
TORSDOF 6
ENDMDL
MODEL 4
REMARK VINA RESULT:    -7.879      2.672      5.928
REMARK INTER + INTRA:         -11.674
REMARK INTER:                 -10.298
REMARK INTRA:                  -1.376
REMARK UNBOUND:                -1.262
REMARK  6 active torsions:
REMARK  status: ('A' for Active; 'I' for Inactive)
REMARK    1  A    between atoms: C_2  and  C_3 
REMARK    2  A    between atoms: C_3  and  C_4 
REMARK    3  A    between atoms: C_10  and  O_11 
REMARK    4  A    between atoms: C_12  and  C_13 
REMARK       I    between atoms: C_13  and  N_15 
REMARK    5  A    between atoms: N_15  and  C_17 
REMARK    6  A    between atoms: C_20  and  C_21 
ROOT
HETATM    1  C   UNL     1       7.746  11.919  20.445  0.00  0.00     0.260 C 
HETATM    2  O   UNL     1       7.249  11.280  19.509  0.00  0.00    -0.267 OA
HETATM    3  N   UNL     1       8.806  12.814  20.202  0.00  0.00    -0.318 N 
HETATM    4  C   UNL     1       9.287  12.993  18.835  0.00  0.00     0.159 C 
ENDROOT
BRANCH   1   5
HETATM    5  C   UNL     1       7.069  11.760  21.784  0.00  0.00     0.066 C 
HETATM    6  C   UNL     1       7.144  10.656  22.641  0.00  0.00     0.083 C 
HETATM    7  C   UNL     1       6.531  10.627  23.904  0.00  0.00     0.069 C 
HETATM    8  C   UNL     1       5.680  11.684  24.212  0.00  0.00     0.065 A 
HETATM    9  N   UNL     1       4.866  11.895  25.287  0.00  0.00    -0.277 N 
HETATM   10  C   UNL     1       5.464  12.756  23.358  0.00  0.00     0.019 A 
HETATM   11  N   UNL     1       4.093  12.979  25.183  0.00  0.00    -0.178 NA
HETATM   12  H   UNL     1       4.760  11.309  26.110  0.00  0.00     0.189 HD
HETATM   13  C   UNL     1       4.452  13.514  24.004  0.00  0.00     0.067 A 
HETATM   14  C   UNL     1       6.193  12.813  22.150  0.00  0.00     0.035 C 
BRANCH   6  15
HETATM   15  O   UNL     1       7.683   9.467  22.249  0.00  0.00    -0.360 OA
HETATM   16  H   UNL     1       8.519   9.658  21.791  0.00  0.00     0.217 HD
ENDBRANCH   6  15
BRANCH  13  17
HETATM   17  C   UNL     1       3.744  14.743  23.529  0.00  0.00     0.062 C 
BRANCH  17  18
HETATM   18  C   UNL     1       4.425  16.020  24.030  0.00  0.00     0.002 C 
HETATM   19  C   UNL     1       5.862  16.114  23.558  0.00  0.00     0.005 C 
ENDBRANCH  17  18
ENDBRANCH  13  17
ENDBRANCH   1   5
BRANCH   3  20
HETATM   20  C   UNL     1       9.492  13.562  21.169  0.00  0.00     0.037 C 
HETATM   21  C   UNL     1      10.611  12.997  21.770  0.00  0.00     0.030 C 
HETATM   22  C   UNL     1      11.250  13.663  22.810  0.00  0.00     0.010 C 
HETATM   23  C   UNL     1      10.865  14.957  23.197  0.00  0.00    -0.054 C 
HETATM   24  C   UNL     1       9.812  15.559  22.481  0.00  0.00     0.010 C 
HETATM   25  C   UNL     1       9.127  14.868  21.473  0.00  0.00     0.030 C 
BRANCH  23  26
HETATM   26  C   UNL     1      11.511  15.640  24.406  0.00  0.00     0.022 C 
HETATM   27  C   UNL     1      10.604  15.725  25.654  0.00  0.00     0.039 C 
HETATM   28  C   UNL     1      10.418  14.341  26.287  0.00  0.00     0.272 C 
HETATM   29  N   UNL     1      11.686  13.715  26.685  0.00  0.00     0.084 N 
HETATM   30  C   UNL     1      12.247  14.340  27.881  0.00  0.00     0.309 C 
HETATM   31  C   UNL     1      12.642  13.677  25.568  0.00  0.00     0.272 C 
HETATM   32  C   UNL     1      12.847  15.028  24.872  0.00  0.00     0.039 C 
ENDBRANCH  23  26
ENDBRANCH   3  20
TORSDOF 6
ENDMDL
MODEL 5
REMARK VINA RESULT:    -7.871      2.858      7.120
REMARK INTER + INTRA:         -11.663
REMARK INTER:                 -10.481
REMARK INTRA:                  -1.182
REMARK UNBOUND:                -1.262
REMARK  6 active torsions:
REMARK  status: ('A' for Active; 'I' for Inactive)
REMARK    1  A    between atoms: C_2  and  C_3 
REMARK    2  A    between atoms: C_3  and  C_4 
REMARK    3  A    between atoms: C_10  and  O_11 
REMARK    4  A    between atoms: C_12  and  C_13 
REMARK       I    between atoms: C_13  and  N_15 
REMARK    5  A    between atoms: N_15  and  C_17 
REMARK    6  A    between atoms: C_20  and  C_21 
ROOT
HETATM    1  C   UNL     1       5.502  12.260  23.414  0.00  0.00     0.260 C 
HETATM    2  O   UNL     1       5.097  12.795  24.455  0.00  0.00    -0.267 OA
HETATM    3  N   UNL     1       4.596  11.587  22.571  0.00  0.00    -0.318 N 
HETATM    4  C   UNL     1       3.182  11.551  22.929  0.00  0.00     0.159 C 
ENDROOT
BRANCH   1   5
HETATM    5  C   UNL     1       6.954  12.490  23.077  0.00  0.00     0.066 C 
HETATM    6  C   UNL     1       8.019  11.606  23.291  0.00  0.00     0.083 C 
HETATM    7  C   UNL     1       9.333  11.881  22.880  0.00  0.00     0.069 C 
HETATM    8  C   UNL     1       9.585  13.163  22.402  0.00  0.00     0.065 A 
HETATM    9  N   UNL     1      10.750  13.770  22.034  0.00  0.00    -0.277 N 
HETATM   10  C   UNL     1       8.599  14.132  22.276  0.00  0.00     0.019 A 
HETATM   11  N   UNL     1      10.624  15.065  21.735  0.00  0.00    -0.178 NA
HETATM   12  H   UNL     1      11.681  13.362  22.006  0.00  0.00     0.189 HD
HETATM   13  C   UNL     1       9.308  15.297  21.881  0.00  0.00     0.067 A 
HETATM   14  C   UNL     1       7.265  13.781  22.580  0.00  0.00     0.035 C 
BRANCH   6  15
HETATM   15  O   UNL     1       7.890  10.484  24.054  0.00  0.00    -0.360 OA
HETATM   16  H   UNL     1       6.957  10.412  24.319  0.00  0.00     0.217 HD
ENDBRANCH   6  15
BRANCH  13  17
HETATM   17  C   UNL     1       8.796  16.686  21.666  0.00  0.00     0.062 C 
BRANCH  17  18
HETATM   18  C   UNL     1       9.893  17.623  21.151  0.00  0.00     0.002 C 
HETATM   19  C   UNL     1       9.312  18.826  20.433  0.00  0.00     0.005 C 
ENDBRANCH  17  18
ENDBRANCH  13  17
ENDBRANCH   1   5
BRANCH   3  20
HETATM   20  C   UNL     1       4.922  10.899  21.393  0.00  0.00     0.037 C 
HETATM   21  C   UNL     1       4.896  11.598  20.192  0.00  0.00     0.030 C 
HETATM   22  C   UNL     1       5.104  10.925  18.993  0.00  0.00     0.010 C 
HETATM   23  C   UNL     1       5.460   9.566  18.969  0.00  0.00    -0.054 C 
HETATM   24  C   UNL     1       5.608   8.915  20.209  0.00  0.00     0.010 C 
HETATM   25  C   UNL     1       5.340   9.574  21.416  0.00  0.00     0.030 C 
BRANCH  23  26
HETATM   26  C   UNL     1       5.590   8.812  17.642  0.00  0.00     0.022 C 
HETATM   27  C   UNL     1       5.476   7.276  17.763  0.00  0.00     0.039 C 
HETATM   28  C   UNL     1       4.035   6.862  18.083  0.00  0.00     0.272 C 
HETATM   29  N   UNL     1       3.068   7.315  17.074  0.00  0.00     0.084 N 
HETATM   30  C   UNL     1       3.166   6.535  15.841  0.00  0.00     0.309 C 
HETATM   31  C   UNL     1       3.176   8.762  16.835  0.00  0.00     0.272 C 
HETATM   32  C   UNL     1       4.601   9.244  16.541  0.00  0.00     0.039 C 
ENDBRANCH  23  26
ENDBRANCH   3  20
TORSDOF 6
ENDMDL
MODEL 6
REMARK VINA RESULT:    -7.840      2.667      6.133
REMARK INTER + INTRA:         -11.623
REMARK INTER:                 -10.816
REMARK INTRA:                  -0.808
REMARK UNBOUND:                -1.262
REMARK  6 active torsions:
REMARK  status: ('A' for Active; 'I' for Inactive)
REMARK    1  A    between atoms: C_2  and  C_3 
REMARK    2  A    between atoms: C_3  and  C_4 
REMARK    3  A    between atoms: C_10  and  O_11 
REMARK    4  A    between atoms: C_12  and  C_13 
REMARK       I    between atoms: C_13  and  N_15 
REMARK    5  A    between atoms: N_15  and  C_17 
REMARK    6  A    between atoms: C_20  and  C_21 
ROOT
HETATM    1  C   UNL     1       6.929  12.364  21.131  0.00  0.00     0.260 C 
HETATM    2  O   UNL     1       6.357  11.660  20.290  0.00  0.00    -0.267 OA
HETATM    3  N   UNL     1       8.203  12.898  20.853  0.00  0.00    -0.318 N 
HETATM    4  C   UNL     1       8.820  12.629  19.558  0.00  0.00     0.159 C 
ENDROOT
BRANCH   1   5
HETATM    5  C   UNL     1       6.131  12.692  22.368  0.00  0.00     0.066 C 
HETATM    6  C   UNL     1       6.446  12.352  23.689  0.00  0.00     0.083 C 
HETATM    7  C   UNL     1       5.673  12.762  24.788  0.00  0.00     0.069 C 
HETATM    8  C   UNL     1       4.460  13.382  24.505  0.00  0.00     0.065 A 
HETATM    9  N   UNL     1       3.450  13.792  25.325  0.00  0.00    -0.277 N 
HETATM   10  C   UNL     1       4.027  13.644  23.213  0.00  0.00     0.019 A 
HETATM   11  N   UNL     1       2.371  14.244  24.682  0.00  0.00    -0.178 NA
HETATM   12  H   UNL     1       3.419  13.750  26.340  0.00  0.00     0.189 HD
HETATM   13  C   UNL     1       2.714  14.157  23.386  0.00  0.00     0.067 A 
HETATM   14  C   UNL     1       4.887  13.330  22.137  0.00  0.00     0.035 C 
BRANCH   6  15
HETATM   15  O   UNL     1       7.435  11.465  23.996  0.00  0.00    -0.360 OA
HETATM   16  H   UNL     1       8.247  11.762  23.550  0.00  0.00     0.217 HD
ENDBRANCH   6  15
BRANCH  13  17
HETATM   17  C   UNL     1       1.708  14.545  22.349  0.00  0.00     0.062 C 
BRANCH  17  18
HETATM   18  C   UNL     1       1.330  13.362  21.453  0.00  0.00     0.002 C 
HETATM   19  C   UNL     1      -0.156  13.337  21.152  0.00  0.00     0.005 C 
ENDBRANCH  17  18
ENDBRANCH  13  17
ENDBRANCH   1   5
BRANCH   3  20
HETATM   20  C   UNL     1       8.983  13.668  21.728  0.00  0.00     0.037 C 
HETATM   21  C   UNL     1      10.228  13.179  22.108  0.00  0.00     0.030 C 
HETATM   22  C   UNL     1      10.980  13.860  23.058  0.00  0.00     0.010 C 
HETATM   23  C   UNL     1      10.568  15.104  23.563  0.00  0.00    -0.054 C 
HETATM   24  C   UNL     1       9.365  15.639  23.061  0.00  0.00     0.010 C 
HETATM   25  C   UNL     1       8.575  14.928  22.149  0.00  0.00     0.030 C 
BRANCH  23  26
HETATM   26  C   UNL     1      11.354  15.797  24.680  0.00  0.00     0.022 C 
HETATM   27  C   UNL     1      10.692  15.721  26.074  0.00  0.00     0.039 C 
HETATM   28  C   UNL     1      10.769  14.296  26.635  0.00  0.00     0.272 C 
HETATM   29  N   UNL     1      12.147  13.800  26.755  0.00  0.00     0.084 N 
HETATM   30  C   UNL     1      12.854  14.426  27.870  0.00  0.00     0.309 C 
HETATM   31  C   UNL     1      12.876  13.922  25.485  0.00  0.00     0.272 C 
HETATM   32  C   UNL     1      12.809  15.319  24.855  0.00  0.00     0.039 C 
ENDBRANCH  23  26
ENDBRANCH   3  20
TORSDOF 6
ENDMDL
MODEL 7
REMARK VINA RESULT:    -7.832      2.585      5.358
REMARK INTER + INTRA:         -11.613
REMARK INTER:                  -9.926
REMARK INTRA:                  -1.687
REMARK UNBOUND:                -1.262
REMARK  6 active torsions:
REMARK  status: ('A' for Active; 'I' for Inactive)
REMARK    1  A    between atoms: C_2  and  C_3 
REMARK    2  A    between atoms: C_3  and  C_4 
REMARK    3  A    between atoms: C_10  and  O_11 
REMARK    4  A    between atoms: C_12  and  C_13 
REMARK       I    between atoms: C_13  and  N_15 
REMARK    5  A    between atoms: N_15  and  C_17 
REMARK    6  A    between atoms: C_20  and  C_21 
ROOT
HETATM    1  C   UNL     1       2.927  12.560  23.725  0.00  0.00     0.260 C 
HETATM    2  O   UNL     1       1.716  12.320  23.817  0.00  0.00    -0.267 OA
HETATM    3  N   UNL     1       3.445  13.769  24.228  0.00  0.00    -0.318 N 
HETATM    4  C   UNL     1       2.542  14.714  24.877  0.00  0.00     0.159 C 
ENDROOT
BRANCH   1   5
HETATM    5  C   UNL     1       3.779  11.446  23.169  0.00  0.00     0.066 C 
HETATM    6  C   UNL     1       4.394  10.415  23.890  0.00  0.00     0.083 C 
HETATM    7  C   UNL     1       5.116   9.379  23.275  0.00  0.00     0.069 C 
HETATM    8  C   UNL     1       5.356   9.506  21.911  0.00  0.00     0.065 A 
HETATM    9  N   UNL     1       6.101   8.746  21.057  0.00  0.00    -0.277 N 
HETATM   10  C   UNL     1       4.878  10.566  21.153  0.00  0.00     0.019 A 
HETATM   11  N   UNL     1       6.201   9.246  19.823  0.00  0.00    -0.178 NA
HETATM   12  H   UNL     1       6.606   7.889  21.268  0.00  0.00     0.189 HD
HETATM   13  C   UNL     1       5.455  10.362  19.872  0.00  0.00     0.067 A 
HETATM   14  C   UNL     1       4.051  11.524  21.780  0.00  0.00     0.035 C 
BRANCH   6  15
HETATM   15  O   UNL     1       4.474  10.427  25.250  0.00  0.00    -0.360 OA
HETATM   16  H   UNL     1       3.610  10.150  25.600  0.00  0.00     0.217 HD
ENDBRANCH   6  15
BRANCH  13  17
HETATM   17  C   UNL     1       5.372  11.224  18.652  0.00  0.00     0.062 C 
BRANCH  17  18
HETATM   18  C   UNL     1       4.187  10.838  17.762  0.00  0.00     0.002 C 
HETATM   19  C   UNL     1       3.258  12.012  17.523  0.00  0.00     0.005 C 
ENDBRANCH  17  18
ENDBRANCH  13  17
ENDBRANCH   1   5
BRANCH   3  20
HETATM   20  C   UNL     1       4.780  14.190  24.150  0.00  0.00     0.037 C 
HETATM   21  C   UNL     1       5.131  15.088  23.149  0.00  0.00     0.030 C 
HETATM   22  C   UNL     1       6.464  15.442  22.971  0.00  0.00     0.010 C 
HETATM   23  C   UNL     1       7.462  15.006  23.858  0.00  0.00    -0.054 C 
HETATM   24  C   UNL     1       7.057  14.202  24.941  0.00  0.00     0.010 C 
HETATM   25  C   UNL     1       5.725  13.794  25.089  0.00  0.00     0.030 C 
BRANCH  23  26
HETATM   26  C   UNL     1       8.938  15.321  23.596  0.00  0.00     0.022 C 
HETATM   27  C   UNL     1       9.932  14.404  24.342  0.00  0.00     0.039 C 
HETATM   28  C   UNL     1       9.924  12.992  23.743  0.00  0.00     0.272 C 
HETATM   29  N   UNL     1      10.266  12.971  22.315  0.00  0.00     0.084 N 
HETATM   30  C   UNL     1      11.691  13.206  22.095  0.00  0.00     0.309 C 
HETATM   31  C   UNL     1       9.417  13.891  21.544  0.00  0.00     0.272 C 
HETATM   32  C   UNL     1       9.358  15.314  22.112  0.00  0.00     0.039 C 
ENDBRANCH  23  26
ENDBRANCH   3  20
TORSDOF 6
ENDMDL
MODEL 8
REMARK VINA RESULT:    -7.831      2.664      5.375
REMARK INTER + INTRA:         -11.610
REMARK INTER:                 -10.563
REMARK INTRA:                  -1.047
REMARK UNBOUND:                -1.262
REMARK  6 active torsions:
REMARK  status: ('A' for Active; 'I' for Inactive)
REMARK    1  A    between atoms: C_2  and  C_3 
REMARK    2  A    between atoms: C_3  and  C_4 
REMARK    3  A    between atoms: C_10  and  O_11 
REMARK    4  A    between atoms: C_12  and  C_13 
REMARK       I    between atoms: C_13  and  N_15 
REMARK    5  A    between atoms: N_15  and  C_17 
REMARK    6  A    between atoms: C_20  and  C_21 
ROOT
HETATM    1  C   UNL     1       4.113  14.114  23.306  0.00  0.00     0.260 C 
HETATM    2  O   UNL     1       2.891  14.272  23.184  0.00  0.00    -0.267 OA
HETATM    3  N   UNL     1       4.923  15.185  23.731  0.00  0.00    -0.318 N 
HETATM    4  C   UNL     1       4.299  16.466  24.048  0.00  0.00     0.159 C 
ENDROOT
BRANCH   1   5
HETATM    5  C   UNL     1       4.620  12.709  23.093  0.00  0.00     0.066 C 
HETATM    6  C   UNL     1       4.977  11.783  24.080  0.00  0.00     0.083 C 
HETATM    7  C   UNL     1       5.375  10.469  23.785  0.00  0.00     0.069 C 
HETATM    8  C   UNL     1       5.580  10.161  22.444  0.00  0.00     0.065 A 
HETATM    9  N   UNL     1       6.063   9.034  21.846  0.00  0.00    -0.277 N 
HETATM   10  C   UNL     1       5.362  11.069  21.417  0.00  0.00     0.019 A 
HETATM   11  N   UNL     1       6.235   9.144  20.527  0.00  0.00    -0.178 NA
HETATM   12  H   UNL     1       6.335   8.163  22.293  0.00  0.00     0.189 HD
HETATM   13  C   UNL     1       5.808  10.389  20.254  0.00  0.00     0.067 A 
HETATM   14  C   UNL     1       4.841  12.342  21.741  0.00  0.00     0.035 C 
BRANCH   6  15
HETATM   15  O   UNL     1       5.117  12.134  25.389  0.00  0.00    -0.360 OA
HETATM   16  H   UNL     1       4.329  12.643  25.645  0.00  0.00     0.217 HD
ENDBRANCH   6  15
BRANCH  13  17
HETATM   17  C   UNL     1       5.899  10.886  18.846  0.00  0.00     0.062 C 
BRANCH  17  18
HETATM   18  C   UNL     1       4.693  10.448  18.009  0.00  0.00     0.002 C 
HETATM   19  C   UNL     1       3.798  11.620  17.656  0.00  0.00     0.005 C 
ENDBRANCH  17  18
ENDBRANCH  13  17
ENDBRANCH   1   5
BRANCH   3  20
HETATM   20  C   UNL     1       6.318  15.161  23.866  0.00  0.00     0.037 C 
HETATM   21  C   UNL     1       7.094  15.344  22.727  0.00  0.00     0.030 C 
HETATM   22  C   UNL     1       8.477  15.217  22.803  0.00  0.00     0.010 C 
HETATM   23  C   UNL     1       9.128  15.024  24.032  0.00  0.00    -0.054 C 
HETATM   24  C   UNL     1       8.324  14.974  25.188  0.00  0.00     0.010 C 
HETATM   25  C   UNL     1       6.927  15.041  25.109  0.00  0.00     0.030 C 
BRANCH  23  26
HETATM   26  C   UNL     1      10.640  14.787  24.091  0.00  0.00     0.022 C 
HETATM   27  C   UNL     1      11.346  15.443  25.298  0.00  0.00     0.039 C 
HETATM   28  C   UNL     1      10.984  14.717  26.600  0.00  0.00     0.272 C 
HETATM   29  N   UNL     1      11.338  13.292  26.582  0.00  0.00     0.084 N 
HETATM   30  C   UNL     1      12.780  13.090  26.707  0.00  0.00     0.309 C 
HETATM   31  C   UNL     1      10.774  12.611  25.407  0.00  0.00     0.272 C 
HETATM   32  C   UNL     1      11.075  13.308  24.074  0.00  0.00     0.039 C 
ENDBRANCH  23  26
ENDBRANCH   3  20
TORSDOF 6
ENDMDL
MODEL 9
REMARK VINA RESULT:    -7.787      2.251      5.607
REMARK INTER + INTRA:         -11.553
REMARK INTER:                 -10.291
REMARK INTRA:                  -1.262
REMARK UNBOUND:                -1.262
REMARK  6 active torsions:
REMARK  status: ('A' for Active; 'I' for Inactive)
REMARK    1  A    between atoms: C_2  and  C_3 
REMARK    2  A    between atoms: C_3  and  C_4 
REMARK    3  A    between atoms: C_10  and  O_11 
REMARK    4  A    between atoms: C_12  and  C_13 
REMARK       I    between atoms: C_13  and  N_15 
REMARK    5  A    between atoms: N_15  and  C_17 
REMARK    6  A    between atoms: C_20  and  C_21 
ROOT
HETATM    1  C   UNL     1      10.042  10.047  23.523  0.00  0.00     0.260 C 
HETATM    2  O   UNL     1      10.877   9.150  23.706  0.00  0.00    -0.267 OA
HETATM    3  N   UNL     1       8.669   9.772  23.676  0.00  0.00    -0.318 N 
HETATM    4  C   UNL     1       8.252   8.431  24.074  0.00  0.00     0.159 C 
ENDROOT
BRANCH   1   5
HETATM    5  C   UNL     1      10.601  11.423  23.261  0.00  0.00     0.066 C 
HETATM    6  C   UNL     1      10.779  12.037  22.015  0.00  0.00     0.083 C 
HETATM    7  C   UNL     1      11.245  13.354  21.873  0.00  0.00     0.069 C 
HETATM    8  C   UNL     1      11.703  13.985  23.026  0.00  0.00     0.065 A 
HETATM    9  N   UNL     1      12.306  15.195  23.206  0.00  0.00    -0.277 N 
HETATM   10  C   UNL     1      11.669  13.390  24.279  0.00  0.00     0.019 A 
HETATM   11  N   UNL     1      12.722  15.420  24.455  0.00  0.00    -0.178 NA
HETATM   12  H   UNL     1      12.502  15.902  22.502  0.00  0.00     0.189 HD
HETATM   13  C   UNL     1      12.337  14.318  25.120  0.00  0.00     0.067 A 
HETATM   14  C   UNL     1      11.078  12.113  24.403  0.00  0.00     0.035 C 
BRANCH   6  15
HETATM   15  O   UNL     1      10.664  11.351  20.843  0.00  0.00    -0.360 OA
HETATM   16  H   UNL     1      10.432  10.431  21.060  0.00  0.00     0.217 HD
ENDBRANCH   6  15
BRANCH  13  17
HETATM   17  C   UNL     1      12.684  14.198  26.571  0.00  0.00     0.062 C 
BRANCH  17  18
HETATM   18  C   UNL     1      11.434  14.189  27.456  0.00  0.00     0.002 C 
HETATM   19  C   UNL     1      10.455  15.275  27.057  0.00  0.00     0.005 C 
ENDBRANCH  17  18
ENDBRANCH  13  17
ENDBRANCH   1   5
BRANCH   3  20
HETATM   20  C   UNL     1       7.618  10.673  23.455  0.00  0.00     0.037 C 
HETATM   21  C   UNL     1       6.869  10.542  22.291  0.00  0.00     0.030 C 
HETATM   22  C   UNL     1       5.893  11.484  21.986  0.00  0.00     0.010 C 
HETATM   23  C   UNL     1       5.556  12.508  22.886  0.00  0.00    -0.054 C 
HETATM   24  C   UNL     1       6.242  12.537  24.116  0.00  0.00     0.010 C 
HETATM   25  C   UNL     1       7.267  11.627  24.402  0.00  0.00     0.030 C 
BRANCH  23  26
HETATM   26  C   UNL     1       4.550  13.595  22.497  0.00  0.00     0.022 C 
HETATM   27  C   UNL     1       3.171  13.063  22.050  0.00  0.00     0.039 C 
HETATM   28  C   UNL     1       2.394  12.496  23.244  0.00  0.00     0.272 C 
HETATM   29  N   UNL     1       2.180  13.482  24.311  0.00  0.00     0.084 N 
HETATM   30  C   UNL     1       1.167  14.469  23.943  0.00  0.00     0.309 C 
HETATM   31  C   UNL     1       3.444  14.103  24.733  0.00  0.00     0.272 C 
HETATM   32  C   UNL     1       4.284  14.661  23.578  0.00  0.00     0.039 C 
ENDBRANCH  23  26
ENDBRANCH   3  20
TORSDOF 6
ENDMDL
