REMARK  6 active torsions:
REMARK  status: ('A' for Active; 'I' for Inactive)
REMARK    1  A    between atoms: C_2  and  C_3 
REMARK    2  A    between atoms: C_3  and  C_4 
REMARK    3  A    between atoms: C_10  and  O_11 
REMARK    4  A    between atoms: C_12  and  C_13 
REMARK       I    between atoms: C_13  and  N_15 
REMARK    5  A    between atoms: N_15  and  C_17 
REMARK    6  A    between atoms: C_20  and  C_21 
ROOT
HETATM    1  C   UNL     1       6.204  -0.858   5.371  0.00  0.00     0.260 C 
HETATM    2  O   UNL     1       6.524  -0.314   4.306  0.00  0.00    -0.267 OA
HETATM    3  N   UNL     1       7.177  -1.526   6.140  0.00  0.00    -0.318 N 
HETATM    4  C   UNL     1       8.561  -1.544   5.677  0.00  0.00     0.159 C 
ENDROOT
BRANCH   1   5
HETATM    5  C   UNL     1       4.779  -0.646   5.817  0.00  0.00     0.066 C 
HETATM    6  C   UNL     1       3.934  -1.588   6.416  0.00  0.00     0.083 C 
HETATM    7  C   UNL     1       2.639  -1.278   6.861  0.00  0.00     0.069 C 
HETATM    8  C   UNL     1       2.143  -0.023   6.522  0.00  0.00     0.065 A 
HETATM    9  N   UNL     1       0.910   0.533   6.703  0.00  0.00    -0.277 N 
HETATM   10  C   UNL     1       2.883   0.920   5.822  0.00  0.00     0.019 A 
HETATM   11  N   UNL     1       0.760   1.731   6.133  0.00  0.00    -0.178 NA
HETATM   12  H   UNL     1       0.108   0.124   7.175  0.00  0.00     0.189 HD
HETATM   13  C   UNL     1       1.964   1.977   5.590  0.00  0.00     0.067 A 
HETATM   14  C   UNL     1       4.225   0.620   5.500  0.00  0.00     0.035 C 
BRANCH   6  15
HETATM   15  O   UNL     1       4.245  -2.914   6.468  0.00  0.00    -0.360 OA
HETATM   16  H   UNL     1       3.913  -3.263   7.313  0.00  0.00     0.217 HD
ENDBRANCH   6  15
BRANCH  13  17
HETATM   17  C   UNL     1       2.156   3.241   4.813  0.00  0.00     0.062 C 
BRANCH  17  18
HETATM   18  C   UNL     1       1.914   4.482   5.677  0.00  0.00     0.002 C 
HETATM   19  C   UNL     1       2.086   5.762   4.883  0.00  0.00     0.005 C 
ENDBRANCH  17  18
ENDBRANCH  13  17
ENDBRANCH   1   5
BRANCH   3  20
HETATM   20  C   UNL     1       6.948  -2.223   7.335  0.00  0.00     0.037 C 
HETATM   21  C   UNL     1       6.675  -3.584   7.264  0.00  0.00     0.030 C 
HETATM   22  C   UNL     1       6.334  -4.284   8.416  0.00  0.00     0.010 C 
HETATM   23  C   UNL     1       6.373  -3.675   9.681  0.00  0.00    -0.054 C 
HETATM   24  C   UNL     1       6.781  -2.328   9.737  0.00  0.00     0.010 C 
HETATM   25  C   UNL     1       7.067  -1.603   8.573  0.00  0.00     0.030 C 
BRANCH  23  26
HETATM   26  C   UNL     1       5.901  -4.427  10.929  0.00  0.00     0.022 C 
HETATM   27  C   UNL     1       5.930  -5.966  10.800  0.00  0.00     0.039 C 
HETATM   28  C   UNL     1       7.373  -6.484  10.794  0.00  0.00     0.272 C 
HETATM   29  N   UNL     1       8.123  -6.112  12.001  0.00  0.00     0.084 N 
HETATM   30  C   UNL     1       7.701  -6.891  13.163  0.00  0.00     0.309 C 
HETATM   31  C   UNL     1       8.068  -4.663  12.244  0.00  0.00     0.272 C 
HETATM   32  C   UNL     1       6.651  -4.078  12.230  0.00  0.00     0.039 C 
ENDBRANCH  23  26
ENDBRANCH   3  20
TORSDOF 6
