MODEL 1
REMARK VINA RESULT:    -8.232      0.000      0.000
REMARK INTER + INTRA:         -12.831
REMARK INTER:                 -10.717
REMARK INTRA:                  -2.114
REMARK UNBOUND:                -1.952
REMARK  6 active torsions:
REMARK  status: ('A' for Active; 'I' for Inactive)
REMARK    1  A    between atoms: C_7  and  C_8 
REMARK    2  A    between atoms: C_8  and  C_9 
REMARK    3  A    between atoms: C_16  and  C_20 
REMARK    4  A    between atoms: C_17  and  O_19 
REMARK       I    between atoms: C_20  and  N_22 
REMARK    5  A    between atoms: N_22  and  C_24 
REMARK    6  A    between atoms: C_27  and  O_28 
ROOT
HETATM    1  C   UNL     1       2.807  11.784  23.685  0.00  0.00     0.071 C 
HETATM    2  N   UNL     1       2.323  10.915  24.589  0.00  0.00    -0.178 NA
HETATM    3  N   UNL     1       3.130   9.852  24.486  0.00  0.00    -0.277 N 
HETATM    4  H   UNL     1       2.956   9.057  25.088  0.00  0.00     0.189 HD
HETATM    5  C   UNL     1       3.946  11.251  23.003  0.00  0.00     0.020 C 
HETATM    6  C   UNL     1       4.058   9.952  23.487  0.00  0.00     0.065 C 
HETATM    7  C   UNL     1       4.839  11.680  21.996  0.00  0.00     0.035 C 
HETATM    8  C   UNL     1       5.763  10.758  21.465  0.00  0.00     0.066 C 
HETATM    9  C   UNL     1       5.731   9.419  21.888  0.00  0.00     0.083 C 
HETATM   10  C   UNL     1       4.936   9.006  22.956  0.00  0.00     0.069 C 
ENDROOT
BRANCH   8  11
HETATM   11  C   UNL     1       6.739  11.160  20.409  0.00  0.00     0.260 C 
HETATM   12  O   UNL     1       6.697  10.492  19.371  0.00  0.00    -0.267 OA
HETATM   13  N   UNL     1       7.599  12.267  20.583  0.00  0.00    -0.318 N 
HETATM   14  C   UNL     1       8.292  12.775  19.404  0.00  0.00     0.159 C 
BRANCH  13  15
HETATM   15  C   UNL     1       7.951  12.847  21.844  0.00  0.00     0.037 A 
HETATM   16  C   UNL     1       8.702  12.132  22.780  0.00  0.00     0.032 A 
HETATM   17  C   UNL     1       8.932  12.648  24.057  0.00  0.00     0.039 A 
HETATM   18  C   UNL     1       8.470  13.912  24.412  0.00  0.00     0.068 A 
HETATM   19  C   UNL     1       7.802  14.680  23.460  0.00  0.00     0.039 A 
HETATM   20  C   UNL     1       7.554  14.152  22.180  0.00  0.00     0.032 A 
BRANCH  18  21
HETATM   21  O   UNL     1       8.669  14.238  25.722  0.00  0.00    -0.356 OA
HETATM   22  C   UNL     1       7.520  14.419  26.534  0.00  0.00     0.210 C 
ENDBRANCH  18  21
ENDBRANCH  13  15
ENDBRANCH   8  11
BRANCH   9  23
HETATM   23  O   UNL     1       6.439   8.427  21.260  0.00  0.00    -0.360 OA
HETATM   24  H   UNL     1       7.028   8.026  21.938  0.00  0.00     0.217 HD
ENDBRANCH   9  23
BRANCH   1  25
HETATM   25  C   UNL     1       2.055  13.049  23.404  0.00  0.00     0.100 C 
BRANCH  25  26
HETATM   26  C   UNL     1       2.761  14.176  24.111  0.00  0.00    -0.052 A 
HETATM   27  C   UNL     1       2.409  14.498  25.432  0.00  0.00     0.014 A 
HETATM   28  C   UNL     1       3.012  15.577  26.093  0.00  0.00    -0.061 A 
HETATM   29  C   UNL     1       2.522  16.006  27.441  0.00  0.00     0.048 C 
HETATM   30  C   UNL     1       4.011  16.313  25.438  0.00  0.00     0.007 A 
HETATM   31  C   UNL     1       4.405  15.954  24.149  0.00  0.00     0.001 A 
HETATM   32  C   UNL     1       3.781  14.900  23.491  0.00  0.00     0.007 A 
ENDBRANCH  25  26
ENDBRANCH   1  25
TORSDOF 6
ENDMDL
MODEL 2
REMARK VINA RESULT:    -8.201      2.315      4.883
REMARK INTER + INTRA:         -12.790
REMARK INTER:                 -10.773
REMARK INTRA:                  -2.017
REMARK UNBOUND:                -1.952
REMARK  6 active torsions:
REMARK  status: ('A' for Active; 'I' for Inactive)
REMARK    1  A    between atoms: C_7  and  C_8 
REMARK    2  A    between atoms: C_8  and  C_9 
REMARK    3  A    between atoms: C_16  and  C_20 
REMARK    4  A    between atoms: C_17  and  O_19 
REMARK       I    between atoms: C_20  and  N_22 
REMARK    5  A    between atoms: N_22  and  C_24 
REMARK    6  A    between atoms: C_27  and  O_28 
ROOT
HETATM    1  C   UNL     1       6.094  15.230  24.763  0.00  0.00     0.071 C 
HETATM    2  N   UNL     1       5.879  15.212  26.090  0.00  0.00    -0.178 NA
HETATM    3  N   UNL     1       6.935  14.555  26.584  0.00  0.00    -0.277 N 
HETATM    4  H   UNL     1       6.992  14.421  27.586  0.00  0.00     0.189 HD
HETATM    5  C   UNL     1       7.316  14.569  24.421  0.00  0.00     0.020 C 
HETATM    6  C   UNL     1       7.780  14.059  25.629  0.00  0.00     0.065 C 
HETATM    7  C   UNL     1       8.039  14.284  23.242  0.00  0.00     0.035 C 
HETATM    8  C   UNL     1       9.161  13.434  23.317  0.00  0.00     0.066 C 
HETATM    9  C   UNL     1       9.494  12.829  24.540  0.00  0.00     0.083 C 
HETATM   10  C   UNL     1       8.863  13.185  25.731  0.00  0.00     0.069 C 
ENDROOT
BRANCH   8  11
HETATM   11  C   UNL     1       9.970  13.109  22.105  0.00  0.00     0.260 C 
HETATM   12  O   UNL     1      10.864  13.917  21.837  0.00  0.00    -0.267 OA
HETATM   13  N   UNL     1       9.748  11.926  21.367  0.00  0.00    -0.318 N 
HETATM   14  C   UNL     1      10.766  11.535  20.396  0.00  0.00     0.159 C 
BRANCH  13  15
HETATM   15  C   UNL     1       8.545  11.150  21.395  0.00  0.00     0.037 A 
HETATM   16  C   UNL     1       7.486  11.432  20.529  0.00  0.00     0.032 A 
HETATM   17  C   UNL     1       6.267  10.762  20.645  0.00  0.00     0.039 A 
HETATM   18  C   UNL     1       6.093   9.753  21.589  0.00  0.00     0.068 A 
HETATM   19  C   UNL     1       7.169   9.390  22.397  0.00  0.00     0.039 A 
HETATM   20  C   UNL     1       8.391  10.080  22.291  0.00  0.00     0.032 A 
BRANCH  18  21
HETATM   21  O   UNL     1       4.822   9.265  21.665  0.00  0.00    -0.356 OA
HETATM   22  C   UNL     1       4.424   8.318  20.686  0.00  0.00     0.210 C 
ENDBRANCH  18  21
ENDBRANCH  13  15
ENDBRANCH   8  11
BRANCH   9  23
HETATM   23  O   UNL     1      10.423  11.827  24.641  0.00  0.00    -0.360 OA
HETATM   24  H   UNL     1      11.069  12.106  25.327  0.00  0.00     0.217 HD
ENDBRANCH   9  23
BRANCH   1  25
HETATM   25  C   UNL     1       5.028  15.756  23.852  0.00  0.00     0.100 C 
BRANCH  25  26
HETATM   26  C   UNL     1       4.038  14.648  23.606  0.00  0.00    -0.052 A 
HETATM   27  C   UNL     1       2.681  14.849  23.907  0.00  0.00     0.014 A 
HETATM   28  C   UNL     1       1.747  13.817  23.738  0.00  0.00    -0.061 A 
HETATM   29  C   UNL     1       0.335  13.990  24.205  0.00  0.00     0.048 C 
HETATM   30  C   UNL     1       2.172  12.584  23.219  0.00  0.00     0.007 A 
HETATM   31  C   UNL     1       3.508  12.405  22.862  0.00  0.00     0.001 A 
HETATM   32  C   UNL     1       4.431  13.426  23.060  0.00  0.00     0.007 A 
ENDBRANCH  25  26
ENDBRANCH   1  25
TORSDOF 6
ENDMDL
MODEL 3
REMARK VINA RESULT:    -8.030      1.694      1.957
REMARK INTER + INTRA:         -12.564
REMARK INTER:                 -10.553
REMARK INTRA:                  -2.012
REMARK UNBOUND:                -1.952
REMARK  6 active torsions:
REMARK  status: ('A' for Active; 'I' for Inactive)
REMARK    1  A    between atoms: C_7  and  C_8 
REMARK    2  A    between atoms: C_8  and  C_9 
REMARK    3  A    between atoms: C_16  and  C_20 
REMARK    4  A    between atoms: C_17  and  O_19 
REMARK       I    between atoms: C_20  and  N_22 
REMARK    5  A    between atoms: N_22  and  C_24 
REMARK    6  A    between atoms: C_27  and  O_28 
ROOT
HETATM    1  C   UNL     1       4.292  11.726  23.435  0.00  0.00     0.071 C 
HETATM    2  N   UNL     1       4.067  10.651  24.211  0.00  0.00    -0.178 NA
HETATM    3  N   UNL     1       5.209   9.955  24.142  0.00  0.00    -0.277 N 
HETATM    4  H   UNL     1       5.274   9.089  24.664  0.00  0.00     0.189 HD
HETATM    5  C   UNL     1       5.607  11.701  22.872  0.00  0.00     0.020 C 
HETATM    6  C   UNL     1       6.131  10.479  23.280  0.00  0.00     0.065 C 
HETATM    7  C   UNL     1       6.379  12.520  22.019  0.00  0.00     0.035 C 
HETATM    8  C   UNL     1       7.620  12.041  21.552  0.00  0.00     0.066 C 
HETATM    9  C   UNL     1       8.030  10.739  21.879  0.00  0.00     0.083 C 
HETATM   10  C   UNL     1       7.337   9.962  22.806  0.00  0.00     0.069 C 
ENDROOT
BRANCH   8  11
HETATM   11  C   UNL     1       8.484  12.869  20.659  0.00  0.00     0.260 C 
HETATM   12  O   UNL     1       8.465  12.552  19.466  0.00  0.00    -0.267 OA
HETATM   13  N   UNL     1       9.216  13.971  21.157  0.00  0.00    -0.318 N 
HETATM   14  C   UNL     1       9.780  14.901  20.183  0.00  0.00     0.159 C 
BRANCH  13  15
HETATM   15  C   UNL     1       9.564  14.176  22.530  0.00  0.00     0.037 A 
HETATM   16  C   UNL     1      10.502  13.359  23.165  0.00  0.00     0.032 A 
HETATM   17  C   UNL     1      10.744  13.477  24.535  0.00  0.00     0.039 A 
HETATM   18  C   UNL     1      10.100  14.450  25.294  0.00  0.00     0.068 A 
HETATM   19  C   UNL     1       9.233  15.338  24.660  0.00  0.00     0.039 A 
HETATM   20  C   UNL     1       8.976  15.206  23.283  0.00  0.00     0.032 A 
BRANCH  18  21
HETATM   21  O   UNL     1      10.347  14.375  26.633  0.00  0.00    -0.356 OA
HETATM   22  C   UNL     1       9.592  15.222  27.486  0.00  0.00     0.210 C 
ENDBRANCH  18  21
ENDBRANCH  13  15
ENDBRANCH   8  11
BRANCH   9  23
HETATM   23  O   UNL     1       9.105  10.130  21.285  0.00  0.00    -0.360 OA
HETATM   24  H   UNL     1       9.386   9.402  21.882  0.00  0.00     0.217 HD
ENDBRANCH   9  23
BRANCH   1  25
HETATM   25  C   UNL     1       3.167  12.671  23.143  0.00  0.00     0.100 C 
BRANCH  25  26
HETATM   26  C   UNL     1       3.383  13.919  23.958  0.00  0.00    -0.052 A 
HETATM   27  C   UNL     1       2.810  14.022  25.236  0.00  0.00     0.014 A 
HETATM   28  C   UNL     1       2.951  15.194  25.993  0.00  0.00    -0.061 A 
HETATM   29  C   UNL     1       2.211  15.352  27.285  0.00  0.00     0.048 C 
HETATM   30  C   UNL     1       3.712  16.255  25.481  0.00  0.00     0.007 A 
HETATM   31  C   UNL     1       4.333  16.128  24.239  0.00  0.00     0.001 A 
HETATM   32  C   UNL     1       4.164  14.973  23.483  0.00  0.00     0.007 A 
ENDBRANCH  25  26
ENDBRANCH   1  25
TORSDOF 6
ENDMDL
MODEL 4
REMARK VINA RESULT:    -8.014      2.825      4.935
REMARK INTER + INTRA:         -12.543
REMARK INTER:                 -10.541
REMARK INTRA:                  -2.002
REMARK UNBOUND:                -1.952
REMARK  6 active torsions:
REMARK  status: ('A' for Active; 'I' for Inactive)
REMARK    1  A    between atoms: C_7  and  C_8 
REMARK    2  A    between atoms: C_8  and  C_9 
REMARK    3  A    between atoms: C_16  and  C_20 
REMARK    4  A    between atoms: C_17  and  O_19 
REMARK       I    between atoms: C_20  and  N_22 
REMARK    5  A    between atoms: N_22  and  C_24 
REMARK    6  A    between atoms: C_27  and  O_28 
ROOT
HETATM    1  C   UNL     1       7.797  14.393  26.620  0.00  0.00     0.071 C 
HETATM    2  N   UNL     1       8.793  15.186  27.054  0.00  0.00    -0.178 NA
HETATM    3  N   UNL     1       9.907  14.542  26.684  0.00  0.00    -0.277 N 
HETATM    4  H   UNL     1      10.801  14.964  26.906  0.00  0.00     0.189 HD
HETATM    5  C   UNL     1       8.303  13.229  25.962  0.00  0.00     0.020 C 
HETATM    6  C   UNL     1       9.682  13.320  26.115  0.00  0.00     0.065 C 
HETATM    7  C   UNL     1       7.765  12.089  25.326  0.00  0.00     0.035 C 
HETATM    8  C   UNL     1       8.634  11.050  24.935  0.00  0.00     0.066 C 
HETATM    9  C   UNL     1      10.000  11.132  25.249  0.00  0.00     0.083 C 
HETATM   10  C   UNL     1      10.564  12.294  25.774  0.00  0.00     0.069 C 
ENDROOT
BRANCH   8  11
HETATM   11  C   UNL     1       8.122   9.828  24.247  0.00  0.00     0.260 C 
HETATM   12  O   UNL     1       8.165   8.791  24.915  0.00  0.00    -0.267 OA
HETATM   13  N   UNL     1       7.576   9.889  22.945  0.00  0.00    -0.318 N 
HETATM   14  C   UNL     1       6.826   8.729  22.473  0.00  0.00     0.159 C 
BRANCH  13  15
HETATM   15  C   UNL     1       7.812  10.940  22.001  0.00  0.00     0.037 A 
HETATM   16  C   UNL     1       8.870  10.867  21.093  0.00  0.00     0.032 A 
HETATM   17  C   UNL     1       9.178  11.947  20.264  0.00  0.00     0.039 A 
HETATM   18  C   UNL     1       8.402  13.103  20.278  0.00  0.00     0.068 A 
HETATM   19  C   UNL     1       7.283  13.157  21.107  0.00  0.00     0.039 A 
HETATM   20  C   UNL     1       6.986  12.075  21.956  0.00  0.00     0.032 A 
BRANCH  18  21
HETATM   21  O   UNL     1       8.884  14.115  19.500  0.00  0.00    -0.356 OA
HETATM   22  C   UNL     1       9.668  15.113  20.137  0.00  0.00     0.210 C 
ENDBRANCH  18  21
ENDBRANCH  13  15
ENDBRANCH   8  11
BRANCH   9  23
HETATM   23  O   UNL     1      10.858  10.072  25.104  0.00  0.00    -0.360 OA
HETATM   24  H   UNL     1      10.321   9.256  25.206  0.00  0.00     0.217 HD
ENDBRANCH   9  23
BRANCH   1  25
HETATM   25  C   UNL     1       6.384  14.717  26.994  0.00  0.00     0.100 C 
BRANCH  25  26
HETATM   26  C   UNL     1       5.607  14.943  25.724  0.00  0.00    -0.052 A 
HETATM   27  C   UNL     1       4.215  14.750  25.716  0.00  0.00     0.014 A 
HETATM   28  C   UNL     1       3.476  14.902  24.535  0.00  0.00    -0.061 A 
HETATM   29  C   UNL     1       2.022  14.545  24.502  0.00  0.00     0.048 C 
HETATM   30  C   UNL     1       4.133  15.294  23.358  0.00  0.00     0.007 A 
HETATM   31  C   UNL     1       5.504  15.546  23.380  0.00  0.00     0.001 A 
HETATM   32  C   UNL     1       6.234  15.366  24.551  0.00  0.00     0.007 A 
ENDBRANCH  25  26
ENDBRANCH   1  25
TORSDOF 6
ENDMDL
MODEL 5
REMARK VINA RESULT:    -7.749      4.120      7.334
REMARK INTER + INTRA:         -12.192
REMARK INTER:                  -9.942
REMARK INTRA:                  -2.251
REMARK UNBOUND:                -1.952
REMARK  6 active torsions:
REMARK  status: ('A' for Active; 'I' for Inactive)
REMARK    1  A    between atoms: C_7  and  C_8 
REMARK    2  A    between atoms: C_8  and  C_9 
REMARK    3  A    between atoms: C_16  and  C_20 
REMARK    4  A    between atoms: C_17  and  O_19 
REMARK       I    between atoms: C_20  and  N_22 
REMARK    5  A    between atoms: N_22  and  C_24 
REMARK    6  A    between atoms: C_27  and  O_28 
ROOT
HETATM    1  C   UNL     1       4.147   9.574  23.988  0.00  0.00     0.071 C 
HETATM    2  N   UNL     1       4.650   8.877  22.954  0.00  0.00    -0.178 NA
HETATM    3  N   UNL     1       3.661   8.043  22.610  0.00  0.00    -0.277 N 
HETATM    4  H   UNL     1       3.815   7.410  21.834  0.00  0.00     0.189 HD
HETATM    5  C   UNL     1       2.811   9.166  24.294  0.00  0.00     0.020 C 
HETATM    6  C   UNL     1       2.572   8.099  23.435  0.00  0.00     0.065 C 
HETATM    7  C   UNL     1       1.814   9.520  25.229  0.00  0.00     0.035 C 
HETATM    8  C   UNL     1       0.645   8.736  25.312  0.00  0.00     0.066 C 
HETATM    9  C   UNL     1       0.526   7.581  24.521  0.00  0.00     0.083 C 
HETATM   10  C   UNL     1       1.445   7.281  23.517  0.00  0.00     0.069 C 
ENDROOT
BRANCH   8  11
HETATM   11  C   UNL     1      -0.447   9.071  26.273  0.00  0.00     0.260 C 
HETATM   12  O   UNL     1      -0.658   8.224  27.147  0.00  0.00    -0.267 OA
HETATM   13  N   UNL     1      -1.137  10.302  26.204  0.00  0.00    -0.318 N 
HETATM   14  C   UNL     1      -1.962  10.677  27.349  0.00  0.00     0.159 C 
BRANCH  13  15
HETATM   15  C   UNL     1      -1.201  11.148  25.051  0.00  0.00     0.037 A 
HETATM   16  C   UNL     1      -2.241  11.025  24.126  0.00  0.00     0.032 A 
HETATM   17  C   UNL     1      -2.232  11.758  22.938  0.00  0.00     0.039 A 
HETATM   18  C   UNL     1      -1.218  12.674  22.670  0.00  0.00     0.068 A 
HETATM   19  C   UNL     1      -0.224  12.881  23.625  0.00  0.00     0.039 A 
HETATM   20  C   UNL     1      -0.224  12.128  24.813  0.00  0.00     0.032 A 
BRANCH  18  21
HETATM   21  O   UNL     1      -1.277  13.233  21.427  0.00  0.00    -0.356 OA
HETATM   22  C   UNL     1      -2.546  13.289  20.795  0.00  0.00     0.210 C 
ENDBRANCH  18  21
ENDBRANCH  13  15
ENDBRANCH   8  11
BRANCH   9  23
HETATM   23  O   UNL     1      -0.469   6.656  24.707  0.00  0.00    -0.360 OA
HETATM   24  H   UNL     1      -0.169   6.057  25.426  0.00  0.00     0.217 HD
ENDBRANCH   9  23
BRANCH   1  25
HETATM   25  C   UNL     1       5.036  10.511  24.745  0.00  0.00     0.100 C 
BRANCH  25  26
HETATM   26  C   UNL     1       4.576  11.918  24.465  0.00  0.00    -0.052 A 
HETATM   27  C   UNL     1       3.779  12.590  25.406  0.00  0.00     0.014 A 
HETATM   28  C   UNL     1       3.294  13.879  25.146  0.00  0.00    -0.061 A 
HETATM   29  C   UNL     1       2.322  14.524  26.084  0.00  0.00     0.048 C 
HETATM   30  C   UNL     1       3.649  14.518  23.948  0.00  0.00     0.007 A 
HETATM   31  C   UNL     1       4.492  13.876  23.042  0.00  0.00     0.001 A 
HETATM   32  C   UNL     1       4.945  12.586  23.296  0.00  0.00     0.007 A 
ENDBRANCH  25  26
ENDBRANCH   1  25
TORSDOF 6
ENDMDL
MODEL 6
REMARK VINA RESULT:    -7.688      2.361      5.124
REMARK INTER + INTRA:         -12.112
REMARK INTER:                 -10.263
REMARK INTRA:                  -1.849
REMARK UNBOUND:                -1.952
REMARK  6 active torsions:
REMARK  status: ('A' for Active; 'I' for Inactive)
REMARK    1  A    between atoms: C_7  and  C_8 
REMARK    2  A    between atoms: C_8  and  C_9 
REMARK    3  A    between atoms: C_16  and  C_20 
REMARK    4  A    between atoms: C_17  and  O_19 
REMARK       I    between atoms: C_20  and  N_22 
REMARK    5  A    between atoms: N_22  and  C_24 
REMARK    6  A    between atoms: C_27  and  O_28 
ROOT
HETATM    1  C   UNL     1       8.570  14.191  22.453  0.00  0.00     0.071 C 
HETATM    2  N   UNL     1       9.701  14.880  22.684  0.00  0.00    -0.178 NA
HETATM    3  N   UNL     1      10.539  13.971  23.197  0.00  0.00    -0.277 N 
HETATM    4  H   UNL     1      11.474  14.268  23.449  0.00  0.00     0.189 HD
HETATM    5  C   UNL     1       8.706  12.818  22.831  0.00  0.00     0.020 C 
HETATM    6  C   UNL     1       9.972  12.744  23.402  0.00  0.00     0.065 C 
HETATM    7  C   UNL     1       7.897  11.661  22.823  0.00  0.00     0.035 C 
HETATM    8  C   UNL     1       8.367  10.494  23.458  0.00  0.00     0.066 C 
HETATM    9  C   UNL     1       9.590  10.522  24.147  0.00  0.00     0.083 C 
HETATM   10  C   UNL     1      10.450  11.616  24.071  0.00  0.00     0.069 C 
ENDROOT
BRANCH   8  11
HETATM   11  C   UNL     1       7.559   9.238  23.469  0.00  0.00     0.260 C 
HETATM   12  O   UNL     1       8.185   8.207  23.205  0.00  0.00    -0.267 OA
HETATM   13  N   UNL     1       6.190   9.246  23.817  0.00  0.00    -0.318 N 
HETATM   14  C   UNL     1       5.558   7.961  24.101  0.00  0.00     0.159 C 
BRANCH  13  15
HETATM   15  C   UNL     1       5.337  10.396  23.784  0.00  0.00     0.037 A 
HETATM   16  C   UNL     1       4.985  11.065  24.958  0.00  0.00     0.032 A 
HETATM   17  C   UNL     1       4.052  12.103  24.939  0.00  0.00     0.039 A 
HETATM   18  C   UNL     1       3.492  12.539  23.741  0.00  0.00     0.068 A 
HETATM   19  C   UNL     1       3.904  11.949  22.547  0.00  0.00     0.039 A 
HETATM   20  C   UNL     1       4.830  10.890  22.571  0.00  0.00     0.032 A 
BRANCH  18  21
HETATM   21  O   UNL     1       2.516  13.481  23.885  0.00  0.00    -0.356 OA
HETATM   22  C   UNL     1       1.732  13.435  25.067  0.00  0.00     0.210 C 
ENDBRANCH  18  21
ENDBRANCH  13  15
ENDBRANCH   8  11
BRANCH   9  23
HETATM   23  O   UNL     1      10.000   9.504  24.969  0.00  0.00    -0.360 OA
HETATM   24  H   UNL     1       9.789   9.779  25.889  0.00  0.00     0.217 HD
ENDBRANCH   9  23
BRANCH   1  25
HETATM   25  C   UNL     1       7.339  14.923  22.015  0.00  0.00     0.100 C 
BRANCH  25  26
HETATM   26  C   UNL     1       6.492  15.182  23.233  0.00  0.00    -0.052 A 
HETATM   27  C   UNL     1       6.965  14.806  24.501  0.00  0.00     0.014 A 
HETATM   28  C   UNL     1       6.175  14.987  25.645  0.00  0.00    -0.061 A 
HETATM   29  C   UNL     1       6.622  14.445  26.966  0.00  0.00     0.048 C 
HETATM   30  C   UNL     1       4.915  15.592  25.520  0.00  0.00     0.007 A 
HETATM   31  C   UNL     1       4.471  16.022  24.270  0.00  0.00     0.001 A 
HETATM   32  C   UNL     1       5.251  15.812  23.137  0.00  0.00     0.007 A 
ENDBRANCH  25  26
ENDBRANCH   1  25
TORSDOF 6
ENDMDL
MODEL 7
REMARK VINA RESULT:    -7.685      3.088      5.439
REMARK INTER + INTRA:         -12.108
REMARK INTER:                 -10.502
REMARK INTRA:                  -1.606
REMARK UNBOUND:                -1.952
REMARK  6 active torsions:
REMARK  status: ('A' for Active; 'I' for Inactive)
REMARK    1  A    between atoms: C_7  and  C_8 
REMARK    2  A    between atoms: C_8  and  C_9 
REMARK    3  A    between atoms: C_16  and  C_20 
REMARK    4  A    between atoms: C_17  and  O_19 
REMARK       I    between atoms: C_20  and  N_22 
REMARK    5  A    between atoms: N_22  and  C_24 
REMARK    6  A    between atoms: C_27  and  O_28 
ROOT
HETATM    1  C   UNL     1      -0.123  12.097  23.610  0.00  0.00     0.071 C 
HETATM    2  N   UNL     1      -1.427  11.786  23.498  0.00  0.00    -0.178 NA
HETATM    3  N   UNL     1      -1.495  10.514  23.909  0.00  0.00    -0.277 N 
HETATM    4  H   UNL     1      -2.400  10.060  23.915  0.00  0.00     0.189 HD
HETATM    5  C   UNL     1       0.639  10.993  24.106  0.00  0.00     0.020 C 
HETATM    6  C   UNL     1      -0.281   9.953  24.192  0.00  0.00     0.065 C 
HETATM    7  C   UNL     1       1.990  10.732  24.421  0.00  0.00     0.035 C 
HETATM    8  C   UNL     1       2.375   9.413  24.739  0.00  0.00     0.066 C 
HETATM    9  C   UNL     1       1.431   8.377  24.664  0.00  0.00     0.083 C 
HETATM   10  C   UNL     1       0.075   8.632  24.466  0.00  0.00     0.069 C 
ENDROOT
BRANCH   8  11
HETATM   11  C   UNL     1       3.787   9.082  25.092  0.00  0.00     0.260 C 
HETATM   12  O   UNL     1       4.053   9.128  26.297  0.00  0.00    -0.267 OA
HETATM   13  N   UNL     1       4.720   8.689  24.107  0.00  0.00    -0.318 N 
HETATM   14  C   UNL     1       5.972   8.093  24.563  0.00  0.00     0.159 C 
BRANCH  13  15
HETATM   15  C   UNL     1       4.598   8.949  22.704  0.00  0.00     0.037 A 
HETATM   16  C   UNL     1       4.200   7.946  21.818  0.00  0.00     0.032 A 
HETATM   17  C   UNL     1       4.207   8.164  20.439  0.00  0.00     0.039 A 
HETATM   18  C   UNL     1       4.554   9.406  19.913  0.00  0.00     0.068 A 
HETATM   19  C   UNL     1       4.860  10.448  20.786  0.00  0.00     0.039 A 
HETATM   20  C   UNL     1       4.871  10.221  22.175  0.00  0.00     0.032 A 
BRANCH  18  21
HETATM   21  O   UNL     1       4.625   9.441  18.552  0.00  0.00    -0.356 OA
HETATM   22  C   UNL     1       4.505   8.209  17.858  0.00  0.00     0.210 C 
ENDBRANCH  18  21
ENDBRANCH  13  15
ENDBRANCH   8  11
BRANCH   9  23
HETATM   23  O   UNL     1       1.778   7.052  24.738  0.00  0.00    -0.360 OA
HETATM   24  H   UNL     1       1.452   6.721  25.604  0.00  0.00     0.217 HD
ENDBRANCH   9  23
BRANCH   1  25
HETATM   25  C   UNL     1       0.366  13.412  23.088  0.00  0.00     0.100 C 
BRANCH  25  26
HETATM   26  C   UNL     1       1.232  14.041  24.148  0.00  0.00    -0.052 A 
HETATM   27  C   UNL     1       2.384  14.752  23.773  0.00  0.00     0.014 A 
HETATM   28  C   UNL     1       3.235  15.302  24.742  0.00  0.00    -0.061 A 
HETATM   29  C   UNL     1       4.537  15.923  24.340  0.00  0.00     0.048 C 
HETATM   30  C   UNL     1       2.904  15.175  26.099  0.00  0.00     0.007 A 
HETATM   31  C   UNL     1       1.727  14.523  26.469  0.00  0.00     0.001 A 
HETATM   32  C   UNL     1       0.904  13.957  25.501  0.00  0.00     0.007 A 
ENDBRANCH  25  26
ENDBRANCH   1  25
TORSDOF 6
ENDMDL
MODEL 8
REMARK VINA RESULT:    -7.666      2.756      4.992
REMARK INTER + INTRA:         -12.083
REMARK INTER:                 -10.156
REMARK INTRA:                  -1.927
REMARK UNBOUND:                -1.952
REMARK  6 active torsions:
REMARK  status: ('A' for Active; 'I' for Inactive)
REMARK    1  A    between atoms: C_7  and  C_8 
REMARK    2  A    between atoms: C_8  and  C_9 
REMARK    3  A    between atoms: C_16  and  C_20 
REMARK    4  A    between atoms: C_17  and  O_19 
REMARK       I    between atoms: C_20  and  N_22 
REMARK    5  A    between atoms: N_22  and  C_24 
REMARK    6  A    between atoms: C_27  and  O_28 
ROOT
HETATM    1  C   UNL     1       7.220  14.312  26.116  0.00  0.00     0.071 C 
HETATM    2  N   UNL     1       7.955  14.784  27.139  0.00  0.00    -0.178 NA
HETATM    3  N   UNL     1       9.018  15.341  26.546  0.00  0.00    -0.277 N 
HETATM    4  H   UNL     1       9.722  15.774  27.132  0.00  0.00     0.189 HD
HETATM    5  C   UNL     1       7.839  14.583  24.856  0.00  0.00     0.020 C 
HETATM    6  C   UNL     1       9.056  15.167  25.191  0.00  0.00     0.065 C 
HETATM    7  C   UNL     1       7.553  14.344  23.494  0.00  0.00     0.035 C 
HETATM    8  C   UNL     1       8.537  14.636  22.528  0.00  0.00     0.066 C 
HETATM    9  C   UNL     1       9.803  15.085  22.938  0.00  0.00     0.083 C 
HETATM   10  C   UNL     1      10.065  15.432  24.263  0.00  0.00     0.069 C 
ENDROOT
BRANCH   8  11
HETATM   11  C   UNL     1       8.284  14.416  21.073  0.00  0.00     0.260 C 
HETATM   12  O   UNL     1       7.969  15.425  20.435  0.00  0.00    -0.267 OA
HETATM   13  N   UNL     1       8.457  13.146  20.479  0.00  0.00    -0.318 N 
HETATM   14  C   UNL     1       8.490  13.082  19.021  0.00  0.00     0.159 C 
BRANCH  13  15
HETATM   15  C   UNL     1       8.467  11.900  21.185  0.00  0.00     0.037 A 
HETATM   16  C   UNL     1       7.290  11.173  21.377  0.00  0.00     0.032 A 
HETATM   17  C   UNL     1       7.279  10.028  22.176  0.00  0.00     0.039 A 
HETATM   18  C   UNL     1       8.451   9.547  22.753  0.00  0.00     0.068 A 
HETATM   19  C   UNL     1       9.652  10.204  22.493  0.00  0.00     0.039 A 
HETATM   20  C   UNL     1       9.658  11.369  21.704  0.00  0.00     0.032 A 
BRANCH  18  21
HETATM   21  O   UNL     1       8.271   8.489  23.596  0.00  0.00    -0.356 OA
HETATM   22  C   UNL     1       7.039   8.412  24.296  0.00  0.00     0.210 C 
ENDBRANCH  18  21
ENDBRANCH  13  15
ENDBRANCH   8  11
BRANCH   9  23
HETATM   23  O   UNL     1      10.870  15.173  22.083  0.00  0.00    -0.360 OA
HETATM   24  H   UNL     1      10.608  14.716  21.253  0.00  0.00     0.217 HD
ENDBRANCH   9  23
BRANCH   1  25
HETATM   25  C   UNL     1       6.011  13.476  26.404  0.00  0.00     0.100 C 
BRANCH  25  26
HETATM   26  C   UNL     1       4.848  14.064  25.649  0.00  0.00    -0.052 A 
HETATM   27  C   UNL     1       4.040  13.231  24.858  0.00  0.00     0.014 A 
HETATM   28  C   UNL     1       2.984  13.761  24.104  0.00  0.00    -0.061 A 
HETATM   29  C   UNL     1       2.228  12.892  23.147  0.00  0.00     0.048 C 
HETATM   30  C   UNL     1       2.709  15.135  24.178  0.00  0.00     0.007 A 
HETATM   31  C   UNL     1       3.472  15.952  25.012  0.00  0.00     0.001 A 
HETATM   32  C   UNL     1       4.534  15.421  25.735  0.00  0.00     0.007 A 
ENDBRANCH  25  26
ENDBRANCH   1  25
TORSDOF 6
ENDMDL
MODEL 9
REMARK VINA RESULT:    -7.625      2.123      3.850
REMARK INTER + INTRA:         -12.029
REMARK INTER:                 -10.077
REMARK INTRA:                  -1.952
REMARK UNBOUND:                -1.952
REMARK  6 active torsions:
REMARK  status: ('A' for Active; 'I' for Inactive)
REMARK    1  A    between atoms: C_7  and  C_8 
REMARK    2  A    between atoms: C_8  and  C_9 
REMARK    3  A    between atoms: C_16  and  C_20 
REMARK    4  A    between atoms: C_17  and  O_19 
REMARK       I    between atoms: C_20  and  N_22 
REMARK    5  A    between atoms: N_22  and  C_24 
REMARK    6  A    between atoms: C_27  and  O_28 
ROOT
HETATM    1  C   UNL     1       4.313  10.269  23.638  0.00  0.00     0.071 C 
HETATM    2  N   UNL     1       3.719   9.392  22.809  0.00  0.00    -0.178 NA
HETATM    3  N   UNL     1       4.505   9.384  21.725  0.00  0.00    -0.277 N 
HETATM    4  H   UNL     1       4.250   8.779  20.953  0.00  0.00     0.189 HD
HETATM    5  C   UNL     1       5.500  10.818  23.057  0.00  0.00     0.020 C 
HETATM    6  C   UNL     1       5.530  10.287  21.772  0.00  0.00     0.065 C 
HETATM    7  C   UNL     1       6.499  11.742  23.433  0.00  0.00     0.035 C 
HETATM    8  C   UNL     1       7.447  12.151  22.474  0.00  0.00     0.066 C 
HETATM    9  C   UNL     1       7.338  11.694  21.150  0.00  0.00     0.083 C 
HETATM   10  C   UNL     1       6.431  10.700  20.789  0.00  0.00     0.069 C 
ENDROOT
BRANCH   8  11
HETATM   11  C   UNL     1       8.533  13.115  22.820  0.00  0.00     0.260 C 
HETATM   12  O   UNL     1       9.682  12.713  22.608  0.00  0.00    -0.267 OA
HETATM   13  N   UNL     1       8.242  14.412  23.298  0.00  0.00    -0.318 N 
HETATM   14  C   UNL     1       9.332  15.384  23.318  0.00  0.00     0.159 C 
BRANCH  13  15
HETATM   15  C   UNL     1       7.002  14.813  23.891  0.00  0.00     0.037 A 
HETATM   16  C   UNL     1       6.006  15.427  23.128  0.00  0.00     0.032 A 
HETATM   17  C   UNL     1       4.853  15.934  23.731  0.00  0.00     0.039 A 
HETATM   18  C   UNL     1       4.640  15.791  25.099  0.00  0.00     0.068 A 
HETATM   19  C   UNL     1       5.577  15.096  25.861  0.00  0.00     0.039 A 
HETATM   20  C   UNL     1       6.747  14.602  25.255  0.00  0.00     0.032 A 
BRANCH  18  21
HETATM   21  O   UNL     1       3.530  16.432  25.566  0.00  0.00    -0.356 OA
HETATM   22  C   UNL     1       3.002  16.003  26.812  0.00  0.00     0.210 C 
ENDBRANCH  18  21
ENDBRANCH  13  15
ENDBRANCH   8  11
BRANCH   9  23
HETATM   23  O   UNL     1       8.079  12.219  20.123  0.00  0.00    -0.360 OA
HETATM   24  H   UNL     1       8.204  13.173  20.321  0.00  0.00     0.217 HD
ENDBRANCH   9  23
BRANCH   1  25
HETATM   25  C   UNL     1       3.626  10.660  24.909  0.00  0.00     0.100 C 
BRANCH  25  26
HETATM   26  C   UNL     1       2.493  11.589  24.559  0.00  0.00    -0.052 A 
HETATM   27  C   UNL     1       1.171  11.114  24.586  0.00  0.00     0.014 A 
HETATM   28  C   UNL     1       0.104  11.943  24.214  0.00  0.00    -0.061 A 
HETATM   29  C   UNL     1      -1.281  11.385  24.098  0.00  0.00     0.048 C 
HETATM   30  C   UNL     1       0.360  13.274  23.853  0.00  0.00     0.007 A 
HETATM   31  C   UNL     1       1.666  13.763  23.886  0.00  0.00     0.001 A 
HETATM   32  C   UNL     1       2.721  12.925  24.230  0.00  0.00     0.007 A 
ENDBRANCH  25  26
ENDBRANCH   1  25
TORSDOF 6
ENDMDL
