MODEL 1
REMARK VINA RESULT:    -9.346      0.000      0.000
REMARK INTER + INTRA:         -15.056
REMARK INTER:                 -12.186
REMARK INTRA:                  -2.869
REMARK UNBOUND:                -2.431
REMARK  7 active torsions:
REMARK  status: ('A' for Active; 'I' for Inactive)
REMARK    1  A    between atoms: C_7  and  C_8 
REMARK    2  A    between atoms: C_8  and  N_9 
REMARK       I    between atoms: N_9  and  C_11 
REMARK    3  A    between atoms: C_11  and  C_13 
REMARK    4  A    between atoms: C_15  and  C_16 
REMARK    5  A    between atoms: N_22  and  C_23 
REMARK    6  A    between atoms: C_30  and  O_31 
REMARK    7  A    between atoms: C_33  and  O_34 
ROOT
HETATM    1  C   UNL     1       7.706  10.444  23.511  0.00  0.00     0.066 C 
HETATM    2  C   UNL     1       8.042  11.599  24.255  0.00  0.00     0.038 C 
HETATM    3  C   UNL     1       9.375  12.038  24.339  0.00  0.00     0.046 C 
HETATM    4  C   UNL     1      10.334  11.418  23.525  0.00  0.00     0.082 C 
HETATM    5  C   UNL     1      10.031  10.245  22.854  0.00  0.00     0.075 C 
HETATM    6  C   UNL     1       8.742   9.724  22.890  0.00  0.00     0.084 C 
ENDROOT
BRANCH   3   7
HETATM    7  C   UNL     1       9.869  13.092  25.268  0.00  0.00     0.172 C 
HETATM    8  N   UNL     1      10.801  12.812  26.149  0.00  0.00    -0.151 NA
HETATM    9  N   UNL     1      10.915  13.946  26.894  0.00  0.00    -0.226 N 
HETATM   10  H   UNL     1      11.417  13.975  27.772  0.00  0.00     0.194 HD
HETATM   11  C   UNL     1       9.962  14.888  26.508  0.00  0.00     0.349 C 
HETATM   12  O   UNL     1       9.686  15.885  27.155  0.00  0.00    -0.245 OA
HETATM   13  N   UNL     1       9.371  14.367  25.368  0.00  0.00    -0.244 N 
BRANCH  13  14
HETATM   14  C   UNL     1       8.272  14.975  24.728  0.00  0.00     0.051 A 
HETATM   15  C   UNL     1       7.070  15.153  25.436  0.00  0.00     0.031 A 
HETATM   16  C   UNL     1       5.917  15.623  24.801  0.00  0.00     0.002 A 
HETATM   17  C   UNL     1       5.944  15.918  23.446  0.00  0.00     0.001 A 
HETATM   18  C   UNL     1       7.147  15.816  22.747  0.00  0.00     0.009 A 
HETATM   19  C   UNL     1       8.332  15.385  23.378  0.00  0.00    -0.035 A 
HETATM   20  C   UNL     1       9.555  15.326  22.502  0.00  0.00     0.050 C 
ENDBRANCH  13  14
ENDBRANCH   3   7
BRANCH   4  21
HETATM   21  O   UNL     1      11.596  11.909  23.328  0.00  0.00    -0.360 OA
HETATM   22  H   UNL     1      11.981  11.449  22.547  0.00  0.00     0.217 HD
ENDBRANCH   4  21
BRANCH   1  23
HETATM   23  C   UNL     1       6.262  10.219  23.188  0.00  0.00     0.256 C 
HETATM   24  N   UNL     1       5.521  11.077  22.374  0.00  0.00    -0.348 N 
HETATM   25  C   UNL     1       6.086  12.205  21.652  0.00  0.00     0.153 C 
HETATM   26  O   UNL     1       5.763   9.223  23.714  0.00  0.00    -0.267 OA
BRANCH  24  27
HETATM   27  C   UNL     1       4.059  11.055  22.493  0.00  0.00     0.164 C 
BRANCH  27  28
HETATM   28  C   UNL     1       3.311  12.251  23.077  0.00  0.00    -0.034 A 
HETATM   29  C   UNL     1       3.511  12.856  24.336  0.00  0.00    -0.054 A 
HETATM   30  C   UNL     1       4.445  12.316  25.380  0.00  0.00     0.049 C 
HETATM   31  C   UNL     1       2.818  14.049  24.651  0.00  0.00     0.007 A 
HETATM   32  C   UNL     1       1.930  14.642  23.757  0.00  0.00     0.001 A 
HETATM   33  C   UNL     1       1.714  14.053  22.523  0.00  0.00     0.001 A 
HETATM   34  C   UNL     1       2.400  12.881  22.188  0.00  0.00     0.009 A 
ENDBRANCH  27  28
ENDBRANCH  24  27
ENDBRANCH   1  23
BRANCH   6  35
HETATM   35  O   UNL     1       8.531   8.523  22.276  0.00  0.00    -0.360 OA
HETATM   36  H   UNL     1       8.828   7.824  22.892  0.00  0.00     0.217 HD
ENDBRANCH   6  35
TORSDOF 7
ENDMDL
MODEL 2
REMARK VINA RESULT:    -8.940      3.003      6.168
REMARK INTER + INTRA:         -14.507
REMARK INTER:                 -11.793
REMARK INTRA:                  -2.714
REMARK UNBOUND:                -2.431
REMARK  7 active torsions:
REMARK  status: ('A' for Active; 'I' for Inactive)
REMARK    1  A    between atoms: C_7  and  C_8 
REMARK    2  A    between atoms: C_8  and  N_9 
REMARK       I    between atoms: N_9  and  C_11 
REMARK    3  A    between atoms: C_11  and  C_13 
REMARK    4  A    between atoms: C_15  and  C_16 
REMARK    5  A    between atoms: N_22  and  C_23 
REMARK    6  A    between atoms: C_30  and  O_31 
REMARK    7  A    between atoms: C_33  and  O_34 
ROOT
HETATM    1  C   UNL     1       6.156  10.948  20.905  0.00  0.00     0.066 C 
HETATM    2  C   UNL     1       5.326  11.834  21.630  0.00  0.00     0.038 C 
HETATM    3  C   UNL     1       4.256  11.347  22.402  0.00  0.00     0.046 C 
HETATM    4  C   UNL     1       4.142   9.962  22.585  0.00  0.00     0.082 C 
HETATM    5  C   UNL     1       4.902   9.089  21.824  0.00  0.00     0.075 C 
HETATM    6  C   UNL     1       5.864   9.573  20.944  0.00  0.00     0.084 C 
ENDROOT
BRANCH   3   7
HETATM    7  C   UNL     1       3.192  12.191  23.013  0.00  0.00     0.172 C 
HETATM    8  N   UNL     1       1.927  11.919  22.793  0.00  0.00    -0.151 NA
HETATM    9  N   UNL     1       1.252  12.942  23.386  0.00  0.00    -0.226 N 
HETATM   10  H   UNL     1       0.268  13.115  23.224  0.00  0.00     0.194 HD
HETATM   11  C   UNL     1       2.139  13.894  23.886  0.00  0.00     0.349 C 
HETATM   12  O   UNL     1       1.810  15.012  24.250  0.00  0.00    -0.245 OA
HETATM   13  N   UNL     1       3.399  13.333  23.746  0.00  0.00    -0.244 N 
BRANCH  13  14
HETATM   14  C   UNL     1       4.587  14.032  24.039  0.00  0.00     0.051 A 
HETATM   15  C   UNL     1       4.867  15.235  23.366  0.00  0.00     0.031 A 
HETATM   16  C   UNL     1       6.093  15.886  23.524  0.00  0.00     0.002 A 
HETATM   17  C   UNL     1       7.063  15.343  24.353  0.00  0.00     0.001 A 
HETATM   18  C   UNL     1       6.774  14.189  25.083  0.00  0.00     0.009 A 
HETATM   19  C   UNL     1       5.528  13.540  24.971  0.00  0.00    -0.035 A 
HETATM   20  C   UNL     1       5.353  12.308  25.819  0.00  0.00     0.050 C 
ENDBRANCH  13  14
ENDBRANCH   3   7
BRANCH   4  21
HETATM   21  O   UNL     1       3.310   9.382  23.505  0.00  0.00    -0.360 OA
HETATM   22  H   UNL     1       3.573   9.704  24.397  0.00  0.00     0.217 HD
ENDBRANCH   4  21
BRANCH   1  23
HETATM   23  C   UNL     1       7.454  11.481  20.381  0.00  0.00     0.256 C 
HETATM   24  N   UNL     1       8.566  11.711  21.192  0.00  0.00    -0.348 N 
HETATM   25  C   UNL     1       8.638  11.348  22.597  0.00  0.00     0.153 C 
HETATM   26  O   UNL     1       7.463  11.724  19.174  0.00  0.00    -0.267 OA
BRANCH  24  27
HETATM   27  C   UNL     1       9.591  12.645  20.714  0.00  0.00     0.164 C 
BRANCH  27  28
HETATM   28  C   UNL     1       9.805  13.985  21.414  0.00  0.00    -0.034 A 
HETATM   29  C   UNL     1      10.827  14.324  22.324  0.00  0.00    -0.054 A 
HETATM   30  C   UNL     1      11.830  13.339  22.854  0.00  0.00     0.049 C 
HETATM   31  C   UNL     1      10.950  15.662  22.766  0.00  0.00     0.007 A 
HETATM   32  C   UNL     1      10.079  16.661  22.337  0.00  0.00     0.001 A 
HETATM   33  C   UNL     1       9.062  16.341  21.453  0.00  0.00     0.001 A 
HETATM   34  C   UNL     1       8.934  15.026  20.994  0.00  0.00     0.009 A 
ENDBRANCH  27  28
ENDBRANCH  24  27
ENDBRANCH   1  23
BRANCH   6  35
HETATM   35  O   UNL     1       6.518   8.664  20.165  0.00  0.00    -0.360 OA
HETATM   36  H   UNL     1       5.951   7.870  20.103  0.00  0.00     0.217 HD
ENDBRANCH   6  35
TORSDOF 7
ENDMDL
MODEL 3
REMARK VINA RESULT:    -8.659      2.769      6.342
REMARK INTER + INTRA:         -14.128
REMARK INTER:                 -11.136
REMARK INTRA:                  -2.992
REMARK UNBOUND:                -2.431
REMARK  7 active torsions:
REMARK  status: ('A' for Active; 'I' for Inactive)
REMARK    1  A    between atoms: C_7  and  C_8 
REMARK    2  A    between atoms: C_8  and  N_9 
REMARK       I    between atoms: N_9  and  C_11 
REMARK    3  A    between atoms: C_11  and  C_13 
REMARK    4  A    between atoms: C_15  and  C_16 
REMARK    5  A    between atoms: N_22  and  C_23 
REMARK    6  A    between atoms: C_30  and  O_31 
REMARK    7  A    between atoms: C_33  and  O_34 
ROOT
HETATM    1  C   UNL     1       7.210  12.504  20.728  0.00  0.00     0.066 C 
HETATM    2  C   UNL     1       6.479  13.167  21.742  0.00  0.00     0.038 C 
HETATM    3  C   UNL     1       5.121  12.872  21.957  0.00  0.00     0.046 C 
HETATM    4  C   UNL     1       4.558  11.784  21.275  0.00  0.00     0.082 C 
HETATM    5  C   UNL     1       5.242  11.180  20.232  0.00  0.00     0.075 C 
HETATM    6  C   UNL     1       6.538  11.573  19.917  0.00  0.00     0.084 C 
ENDROOT
BRANCH   3   7
HETATM    7  C   UNL     1       4.206  13.659  22.830  0.00  0.00     0.172 C 
HETATM    8  N   UNL     1       3.031  14.036  22.383  0.00  0.00    -0.151 NA
HETATM    9  N   UNL     1       2.528  14.823  23.374  0.00  0.00    -0.226 N 
HETATM   10  H   UNL     1       1.718  15.416  23.243  0.00  0.00     0.194 HD
HETATM   11  C   UNL     1       3.465  14.995  24.391  0.00  0.00     0.349 C 
HETATM   12  O   UNL     1       3.371  15.832  25.274  0.00  0.00    -0.245 OA
HETATM   13  N   UNL     1       4.505  14.132  24.083  0.00  0.00    -0.244 N 
BRANCH  13  14
HETATM   14  C   UNL     1       5.708  14.087  24.817  0.00  0.00     0.051 A 
HETATM   15  C   UNL     1       6.534  15.224  24.863  0.00  0.00     0.031 A 
HETATM   16  C   UNL     1       7.796  15.179  25.462  0.00  0.00     0.002 A 
HETATM   17  C   UNL     1       8.256  13.995  26.019  0.00  0.00     0.001 A 
HETATM   18  C   UNL     1       7.419  12.879  26.046  0.00  0.00     0.009 A 
HETATM   19  C   UNL     1       6.126  12.915  25.486  0.00  0.00    -0.035 A 
HETATM   20  C   UNL     1       5.333  11.639  25.589  0.00  0.00     0.050 C 
ENDBRANCH  13  14
ENDBRANCH   3   7
BRANCH   4  21
HETATM   21  O   UNL     1       3.338  11.244  21.580  0.00  0.00    -0.360 OA
HETATM   22  H   UNL     1       3.175  10.496  20.961  0.00  0.00     0.217 HD
ENDBRANCH   4  21
BRANCH   1  23
HETATM   23  C   UNL     1       8.703  12.613  20.763  0.00  0.00     0.256 C 
HETATM   24  N   UNL     1       9.473  12.192  21.848  0.00  0.00    -0.348 N 
HETATM   25  C   UNL     1       8.937  11.493  23.004  0.00  0.00     0.153 C 
HETATM   26  O   UNL     1       9.208  13.125  19.762  0.00  0.00    -0.267 OA
BRANCH  24  27
HETATM   27  C   UNL     1      10.821  12.751  22.000  0.00  0.00     0.164 C 
BRANCH  27  28
HETATM   28  C   UNL     1      11.102  13.821  23.053  0.00  0.00    -0.034 A 
HETATM   29  C   UNL     1      10.683  15.167  23.041  0.00  0.00    -0.054 A 
HETATM   30  C   UNL     1       9.969  15.807  21.885  0.00  0.00     0.049 C 
HETATM   31  C   UNL     1      10.918  15.978  24.176  0.00  0.00     0.007 A 
HETATM   32  C   UNL     1      11.566  15.490  25.308  0.00  0.00     0.001 A 
HETATM   33  C   UNL     1      11.996  14.173  25.329  0.00  0.00     0.001 A 
HETATM   34  C   UNL     1      11.759  13.352  24.222  0.00  0.00     0.009 A 
ENDBRANCH  27  28
ENDBRANCH  24  27
ENDBRANCH   1  23
BRANCH   6  35
HETATM   35  O   UNL     1       7.123  10.996  18.827  0.00  0.00    -0.360 OA
HETATM   36  H   UNL     1       6.929  11.565  18.056  0.00  0.00     0.217 HD
ENDBRANCH   6  35
TORSDOF 7
ENDMDL
MODEL 4
REMARK VINA RESULT:    -8.587      1.623      2.350
REMARK INTER + INTRA:         -14.030
REMARK INTER:                 -11.795
REMARK INTRA:                  -2.235
REMARK UNBOUND:                -2.431
REMARK  7 active torsions:
REMARK  status: ('A' for Active; 'I' for Inactive)
REMARK    1  A    between atoms: C_7  and  C_8 
REMARK    2  A    between atoms: C_8  and  N_9 
REMARK       I    between atoms: N_9  and  C_11 
REMARK    3  A    between atoms: C_11  and  C_13 
REMARK    4  A    between atoms: C_15  and  C_16 
REMARK    5  A    between atoms: N_22  and  C_23 
REMARK    6  A    between atoms: C_30  and  O_31 
REMARK    7  A    between atoms: C_33  and  O_34 
ROOT
HETATM    1  C   UNL     1       7.122  10.446  23.860  0.00  0.00     0.066 C 
HETATM    2  C   UNL     1       8.081  11.458  24.097  0.00  0.00     0.038 C 
HETATM    3  C   UNL     1       9.441  11.138  24.250  0.00  0.00     0.046 C 
HETATM    4  C   UNL     1       9.851   9.825  23.981  0.00  0.00     0.082 C 
HETATM    5  C   UNL     1       8.915   8.816  23.822  0.00  0.00     0.075 C 
HETATM    6  C   UNL     1       7.556   9.109  23.819  0.00  0.00     0.084 C 
ENDROOT
BRANCH   3   7
HETATM    7  C   UNL     1      10.491  12.081  24.725  0.00  0.00     0.172 C 
HETATM    8  N   UNL     1      11.183  11.809  25.807  0.00  0.00    -0.151 NA
HETATM    9  N   UNL     1      11.945  12.919  26.011  0.00  0.00    -0.226 N 
HETATM   10  H   UNL     1      12.444  13.088  26.875  0.00  0.00     0.194 HD
HETATM   11  C   UNL     1      11.628  13.912  25.085  0.00  0.00     0.349 C 
HETATM   12  O   UNL     1      11.981  15.076  25.183  0.00  0.00    -0.245 OA
HETATM   13  N   UNL     1      10.769  13.309  24.179  0.00  0.00    -0.244 N 
BRANCH  13  14
HETATM   14  C   UNL     1      10.131  14.017  23.140  0.00  0.00     0.051 A 
HETATM   15  C   UNL     1       9.427  15.198  23.437  0.00  0.00     0.031 A 
HETATM   16  C   UNL     1       8.667  15.853  22.465  0.00  0.00     0.002 A 
HETATM   17  C   UNL     1       8.592  15.336  21.180  0.00  0.00     0.001 A 
HETATM   18  C   UNL     1       9.343  14.207  20.851  0.00  0.00     0.009 A 
HETATM   19  C   UNL     1      10.149  13.555  21.806  0.00  0.00    -0.035 A 
HETATM   20  C   UNL     1      10.906  12.351  21.310  0.00  0.00     0.050 C 
ENDBRANCH  13  14
ENDBRANCH   3   7
BRANCH   4  21
HETATM   21  O   UNL     1      11.161   9.449  23.849  0.00  0.00    -0.360 OA
HETATM   22  H   UNL     1      11.219   8.809  23.103  0.00  0.00     0.217 HD
ENDBRANCH   4  21
BRANCH   1  23
HETATM   23  C   UNL     1       5.767  10.869  23.383  0.00  0.00     0.256 C 
HETATM   24  N   UNL     1       5.541  11.421  22.121  0.00  0.00    -0.348 N 
HETATM   25  C   UNL     1       6.558  11.536  21.089  0.00  0.00     0.153 C 
HETATM   26  O   UNL     1       4.858  10.710  24.199  0.00  0.00    -0.267 OA
BRANCH  24  27
HETATM   27  C   UNL     1       4.326  12.219  21.921  0.00  0.00     0.164 C 
BRANCH  27  28
HETATM   28  C   UNL     1       4.129  13.532  22.676  0.00  0.00    -0.034 A 
HETATM   29  C   UNL     1       2.998  13.934  23.416  0.00  0.00    -0.054 A 
HETATM   30  C   UNL     1       1.719  13.148  23.476  0.00  0.00     0.049 C 
HETATM   31  C   UNL     1       3.049  15.131  24.169  0.00  0.00     0.007 A 
HETATM   32  C   UNL     1       4.185  15.937  24.192  0.00  0.00     0.001 A 
HETATM   33  C   UNL     1       5.299  15.562  23.460  0.00  0.00     0.001 A 
HETATM   34  C   UNL     1       5.272  14.375  22.721  0.00  0.00     0.009 A 
ENDBRANCH  27  28
ENDBRANCH  24  27
ENDBRANCH   1  23
BRANCH   6  35
HETATM   35  O   UNL     1       6.686   8.060  23.740  0.00  0.00    -0.360 OA
HETATM   36  H   UNL     1       6.380   7.866  24.648  0.00  0.00     0.217 HD
ENDBRANCH   6  35
TORSDOF 7
ENDMDL
MODEL 5
REMARK VINA RESULT:    -8.134      3.795      6.059
REMARK INTER + INTRA:         -13.419
REMARK INTER:                 -11.680
REMARK INTRA:                  -1.739
REMARK UNBOUND:                -2.431
REMARK  7 active torsions:
REMARK  status: ('A' for Active; 'I' for Inactive)
REMARK    1  A    between atoms: C_7  and  C_8 
REMARK    2  A    between atoms: C_8  and  N_9 
REMARK       I    between atoms: N_9  and  C_11 
REMARK    3  A    between atoms: C_11  and  C_13 
REMARK    4  A    between atoms: C_15  and  C_16 
REMARK    5  A    between atoms: N_22  and  C_23 
REMARK    6  A    between atoms: C_30  and  O_31 
REMARK    7  A    between atoms: C_33  and  O_34 
ROOT
HETATM    1  C   UNL     1       5.772  11.940  20.462  0.00  0.00     0.066 C 
HETATM    2  C   UNL     1       7.089  12.388  20.716  0.00  0.00     0.038 C 
HETATM    3  C   UNL     1       7.357  13.267  21.780  0.00  0.00     0.046 C 
HETATM    4  C   UNL     1       6.327  13.545  22.690  0.00  0.00     0.082 C 
HETATM    5  C   UNL     1       5.023  13.173  22.409  0.00  0.00     0.075 C 
HETATM    6  C   UNL     1       4.731  12.426  21.274  0.00  0.00     0.084 C 
ENDROOT
BRANCH   3   7
HETATM    7  C   UNL     1       8.649  13.975  21.998  0.00  0.00     0.172 C 
HETATM    8  N   UNL     1       8.788  15.225  21.624  0.00  0.00    -0.151 NA
HETATM    9  N   UNL     1      10.101  15.504  21.854  0.00  0.00    -0.226 N 
HETATM   10  H   UNL     1      10.556  16.331  21.490  0.00  0.00     0.194 HD
HETATM   11  C   UNL     1      10.779  14.364  22.283  0.00  0.00     0.349 C 
HETATM   12  O   UNL     1      11.995  14.270  22.333  0.00  0.00    -0.245 OA
HETATM   13  N   UNL     1       9.798  13.408  22.491  0.00  0.00    -0.244 N 
BRANCH  13  14
HETATM   14  C   UNL     1      10.089  12.070  22.828  0.00  0.00     0.051 A 
HETATM   15  C   UNL     1      10.774  11.257  21.907  0.00  0.00     0.031 A 
HETATM   16  C   UNL     1      10.960   9.893  22.144  0.00  0.00     0.002 A 
HETATM   17  C   UNL     1      10.460   9.316  23.302  0.00  0.00     0.001 A 
HETATM   18  C   UNL     1       9.843  10.123  24.258  0.00  0.00     0.009 A 
HETATM   19  C   UNL     1       9.682  11.509  24.059  0.00  0.00    -0.035 A 
HETATM   20  C   UNL     1       9.001  12.256  25.175  0.00  0.00     0.050 C 
ENDBRANCH  13  14
ENDBRANCH   3   7
BRANCH   4  21
HETATM   21  O   UNL     1       6.522  14.174  23.891  0.00  0.00    -0.360 OA
HETATM   22  H   UNL     1       7.276  13.732  24.345  0.00  0.00     0.217 HD
ENDBRANCH   4  21
BRANCH   1  23
HETATM   23  C   UNL     1       5.599  10.769  19.545  0.00  0.00     0.256 C 
HETATM   24  N   UNL     1       5.347   9.474  20.001  0.00  0.00    -0.348 N 
HETATM   25  C   UNL     1       5.101   9.135  21.393  0.00  0.00     0.153 C 
HETATM   26  O   UNL     1       5.717  11.029  18.346  0.00  0.00    -0.267 OA
BRANCH  24  27
HETATM   27  C   UNL     1       5.658   8.352  19.109  0.00  0.00     0.164 C 
BRANCH  27  28
HETATM   28  C   UNL     1       4.551   7.664  18.315  0.00  0.00    -0.034 A 
HETATM   29  C   UNL     1       3.740   6.587  18.730  0.00  0.00    -0.054 A 
HETATM   30  C   UNL     1       3.934   5.848  20.023  0.00  0.00     0.049 C 
HETATM   31  C   UNL     1       2.665   6.170  17.910  0.00  0.00     0.007 A 
HETATM   32  C   UNL     1       2.388   6.785  16.691  0.00  0.00     0.001 A 
HETATM   33  C   UNL     1       3.183   7.836  16.264  0.00  0.00     0.001 A 
HETATM   34  C   UNL     1       4.241   8.271  17.068  0.00  0.00     0.009 A 
ENDBRANCH  27  28
ENDBRANCH  24  27
ENDBRANCH   1  23
BRANCH   6  35
HETATM   35  O   UNL     1       3.418  12.164  21.013  0.00  0.00    -0.360 OA
HETATM   36  H   UNL     1       2.891  12.889  21.405  0.00  0.00     0.217 HD
ENDBRANCH   6  35
TORSDOF 7
ENDMDL
MODEL 6
REMARK VINA RESULT:    -8.096      3.121      4.423
REMARK INTER + INTRA:         -13.367
REMARK INTER:                 -11.647
REMARK INTRA:                  -1.720
REMARK UNBOUND:                -2.431
REMARK  7 active torsions:
REMARK  status: ('A' for Active; 'I' for Inactive)
REMARK    1  A    between atoms: C_7  and  C_8 
REMARK    2  A    between atoms: C_8  and  N_9 
REMARK       I    between atoms: N_9  and  C_11 
REMARK    3  A    between atoms: C_11  and  C_13 
REMARK    4  A    between atoms: C_15  and  C_16 
REMARK    5  A    between atoms: N_22  and  C_23 
REMARK    6  A    between atoms: C_30  and  O_31 
REMARK    7  A    between atoms: C_33  and  O_34 
ROOT
HETATM    1  C   UNL     1       7.751  10.209  22.428  0.00  0.00     0.066 C 
HETATM    2  C   UNL     1       8.424  11.375  21.994  0.00  0.00     0.038 C 
HETATM    3  C   UNL     1       9.531  11.872  22.705  0.00  0.00     0.046 C 
HETATM    4  C   UNL     1      10.064  11.091  23.740  0.00  0.00     0.082 C 
HETATM    5  C   UNL     1       9.371   9.991  24.218  0.00  0.00     0.075 C 
HETATM    6  C   UNL     1       8.190   9.582  23.608  0.00  0.00     0.084 C 
ENDROOT
BRANCH   3   7
HETATM    7  C   UNL     1      10.166  13.199  22.475  0.00  0.00     0.172 C 
HETATM    8  N   UNL     1      11.410  13.274  22.062  0.00  0.00    -0.151 NA
HETATM    9  N   UNL     1      11.694  14.605  22.080  0.00  0.00    -0.226 N 
HETATM   10  H   UNL     1      12.637  14.964  21.996  0.00  0.00     0.194 HD
HETATM   11  C   UNL     1      10.627  15.331  22.608  0.00  0.00     0.349 C 
HETATM   12  O   UNL     1      10.699  16.498  22.956  0.00  0.00    -0.245 OA
HETATM   13  N   UNL     1       9.593  14.417  22.745  0.00  0.00    -0.244 N 
BRANCH  13  14
HETATM   14  C   UNL     1       8.363  14.737  23.353  0.00  0.00     0.051 A 
HETATM   15  C   UNL     1       7.276  15.133  22.553  0.00  0.00     0.031 A 
HETATM   16  C   UNL     1       6.085  15.591  23.123  0.00  0.00     0.002 A 
HETATM   17  C   UNL     1       5.961  15.667  24.501  0.00  0.00     0.001 A 
HETATM   18  C   UNL     1       7.003  15.209  25.310  0.00  0.00     0.009 A 
HETATM   19  C   UNL     1       8.197  14.704  24.756  0.00  0.00    -0.035 A 
HETATM   20  C   UNL     1       9.233  14.243  25.747  0.00  0.00     0.050 C 
ENDBRANCH  13  14
ENDBRANCH   3   7
BRANCH   4  21
HETATM   21  O   UNL     1      11.273  11.337  24.334  0.00  0.00    -0.360 OA
HETATM   22  H   UNL     1      11.349  10.751  25.121  0.00  0.00     0.217 HD
ENDBRANCH   4  21
BRANCH   1  23
HETATM   23  C   UNL     1       6.809   9.551  21.468  0.00  0.00     0.256 C 
HETATM   24  N   UNL     1       5.815  10.247  20.778  0.00  0.00    -0.348 N 
HETATM   25  C   UNL     1       5.659  11.692  20.812  0.00  0.00     0.153 C 
HETATM   26  O   UNL     1       6.962   8.335  21.344  0.00  0.00    -0.267 OA
BRANCH  24  27
HETATM   27  C   UNL     1       4.676   9.487  20.251  0.00  0.00     0.164 C 
BRANCH  27  28
HETATM   28  C   UNL     1       4.616   9.106  18.774  0.00  0.00    -0.034 A 
HETATM   29  C   UNL     1       4.336   9.951  17.680  0.00  0.00    -0.054 A 
HETATM   30  C   UNL     1       3.921  11.387  17.822  0.00  0.00     0.049 C 
HETATM   31  C   UNL     1       4.464   9.449  16.363  0.00  0.00     0.007 A 
HETATM   32  C   UNL     1       4.848   8.134  16.111  0.00  0.00     0.001 A 
HETATM   33  C   UNL     1       5.114   7.288  17.175  0.00  0.00     0.001 A 
HETATM   34  C   UNL     1       5.007   7.771  18.483  0.00  0.00     0.009 A 
ENDBRANCH  27  28
ENDBRANCH  24  27
ENDBRANCH   1  23
BRANCH   6  35
HETATM   35  O   UNL     1       7.514   8.543  24.178  0.00  0.00    -0.360 OA
HETATM   36  H   UNL     1       8.180   7.924  24.540  0.00  0.00     0.217 HD
ENDBRANCH   6  35
TORSDOF 7
ENDMDL
MODEL 7
REMARK VINA RESULT:    -8.091      2.179      6.076
REMARK INTER + INTRA:         -13.359
REMARK INTER:                 -10.663
REMARK INTRA:                  -2.696
REMARK UNBOUND:                -2.431
REMARK  7 active torsions:
REMARK  status: ('A' for Active; 'I' for Inactive)
REMARK    1  A    between atoms: C_7  and  C_8 
REMARK    2  A    between atoms: C_8  and  N_9 
REMARK       I    between atoms: N_9  and  C_11 
REMARK    3  A    between atoms: C_11  and  C_13 
REMARK    4  A    between atoms: C_15  and  C_16 
REMARK    5  A    between atoms: N_22  and  C_23 
REMARK    6  A    between atoms: C_30  and  O_31 
REMARK    7  A    between atoms: C_33  and  O_34 
ROOT
HETATM    1  C   UNL     1       9.365  10.306  22.959  0.00  0.00     0.066 C 
HETATM    2  C   UNL     1       8.193   9.998  22.229  0.00  0.00     0.038 C 
HETATM    3  C   UNL     1       7.646   8.703  22.260  0.00  0.00     0.046 C 
HETATM    4  C   UNL     1       8.176   7.777  23.169  0.00  0.00     0.082 C 
HETATM    5  C   UNL     1       9.364   8.044  23.830  0.00  0.00     0.075 C 
HETATM    6  C   UNL     1       9.990   9.277  23.686  0.00  0.00     0.084 C 
ENDROOT
BRANCH   3   7
HETATM    7  C   UNL     1       6.564   8.212  21.361  0.00  0.00     0.172 C 
HETATM    8  N   UNL     1       6.747   7.134  20.636  0.00  0.00    -0.151 NA
HETATM    9  N   UNL     1       5.630   7.053  19.862  0.00  0.00    -0.226 N 
HETATM   10  H   UNL     1       5.561   6.435  19.064  0.00  0.00     0.194 HD
HETATM   11  C   UNL     1       4.809   8.162  20.063  0.00  0.00     0.349 C 
HETATM   12  O   UNL     1       3.875   8.462  19.336  0.00  0.00    -0.245 OA
HETATM   13  N   UNL     1       5.369   8.845  21.131  0.00  0.00    -0.244 N 
BRANCH  13  14
HETATM   14  C   UNL     1       4.890  10.094  21.578  0.00  0.00     0.051 A 
HETATM   15  C   UNL     1       4.138  10.163  22.764  0.00  0.00     0.031 A 
HETATM   16  C   UNL     1       3.529  11.354  23.168  0.00  0.00     0.002 A 
HETATM   17  C   UNL     1       3.657  12.495  22.391  0.00  0.00     0.001 A 
HETATM   18  C   UNL     1       4.460  12.461  21.249  0.00  0.00     0.009 A 
HETATM   19  C   UNL     1       5.117  11.281  20.847  0.00  0.00    -0.035 A 
HETATM   20  C   UNL     1       5.951  11.391  19.598  0.00  0.00     0.050 C 
ENDBRANCH  13  14
ENDBRANCH   3   7
BRANCH   4  21
HETATM   21  O   UNL     1       7.581   6.583  23.473  0.00  0.00    -0.360 OA
HETATM   22  H   UNL     1       8.263   5.876  23.400  0.00  0.00     0.217 HD
ENDBRANCH   4  21
BRANCH   1  23
HETATM   23  C   UNL     1       9.705  11.751  23.152  0.00  0.00     0.256 C 
HETATM   24  N   UNL     1       9.390  12.460  24.313  0.00  0.00    -0.348 N 
HETATM   25  C   UNL     1       8.815  11.857  25.504  0.00  0.00     0.153 C 
HETATM   26  O   UNL     1      10.272  12.282  22.196  0.00  0.00    -0.267 OA
BRANCH  24  27
HETATM   27  C   UNL     1       9.326  13.923  24.235  0.00  0.00     0.164 C 
BRANCH  27  28
HETATM   28  C   UNL     1       7.988  14.630  24.030  0.00  0.00    -0.034 A 
HETATM   29  C   UNL     1       7.279  14.790  22.822  0.00  0.00    -0.054 A 
HETATM   30  C   UNL     1       7.813  14.375  21.481  0.00  0.00     0.049 C 
HETATM   31  C   UNL     1       5.981  15.352  22.847  0.00  0.00     0.007 A 
HETATM   32  C   UNL     1       5.383  15.769  24.034  0.00  0.00     0.001 A 
HETATM   33  C   UNL     1       6.072  15.630  25.227  0.00  0.00     0.001 A 
HETATM   34  C   UNL     1       7.350  15.063  25.224  0.00  0.00     0.009 A 
ENDBRANCH  27  28
ENDBRANCH  24  27
ENDBRANCH   1  23
BRANCH   6  35
HETATM   35  O   UNL     1      11.198   9.446  24.299  0.00  0.00    -0.360 OA
HETATM   36  H   UNL     1      11.131  10.243  24.861  0.00  0.00     0.217 HD
ENDBRANCH   6  35
TORSDOF 7
ENDMDL
MODEL 8
REMARK VINA RESULT:    -7.976      2.487      6.575
REMARK INTER + INTRA:         -13.205
REMARK INTER:                 -10.439
REMARK INTRA:                  -2.766
REMARK UNBOUND:                -2.431
REMARK  7 active torsions:
REMARK  status: ('A' for Active; 'I' for Inactive)
REMARK    1  A    between atoms: C_7  and  C_8 
REMARK    2  A    between atoms: C_8  and  N_9 
REMARK       I    between atoms: N_9  and  C_11 
REMARK    3  A    between atoms: C_11  and  C_13 
REMARK    4  A    between atoms: C_15  and  C_16 
REMARK    5  A    between atoms: N_22  and  C_23 
REMARK    6  A    between atoms: C_30  and  O_31 
REMARK    7  A    between atoms: C_33  and  O_34 
ROOT
HETATM    1  C   UNL     1       8.893   9.184  23.197  0.00  0.00     0.066 C 
HETATM    2  C   UNL     1       8.071   9.790  22.218  0.00  0.00     0.038 C 
HETATM    3  C   UNL     1       6.828   9.229  21.876  0.00  0.00     0.046 C 
HETATM    4  C   UNL     1       6.339   8.168  22.651  0.00  0.00     0.082 C 
HETATM    5  C   UNL     1       7.164   7.524  23.558  0.00  0.00     0.075 C 
HETATM    6  C   UNL     1       8.454   7.988  23.792  0.00  0.00     0.084 C 
ENDROOT
BRANCH   3   7
HETATM    7  C   UNL     1       5.996   9.646  20.713  0.00  0.00     0.172 C 
HETATM    8  N   UNL     1       5.722   8.790  19.757  0.00  0.00    -0.151 NA
HETATM    9  N   UNL     1       5.065   9.527  18.820  0.00  0.00    -0.226 N 
HETATM   10  H   UNL     1       4.892   9.189  17.881  0.00  0.00     0.194 HD
HETATM   11  C   UNL     1       5.033  10.872  19.183  0.00  0.00     0.349 C 
HETATM   12  O   UNL     1       4.722  11.778  18.427  0.00  0.00    -0.245 OA
HETATM   13  N   UNL     1       5.533  10.916  20.476  0.00  0.00    -0.244 N 
BRANCH  13  14
HETATM   14  C   UNL     1       5.767  12.122  21.167  0.00  0.00     0.051 A 
HETATM   15  C   UNL     1       7.025  12.743  21.070  0.00  0.00     0.031 A 
HETATM   16  C   UNL     1       7.343  13.861  21.846  0.00  0.00     0.002 A 
HETATM   17  C   UNL     1       6.411  14.374  22.736  0.00  0.00     0.001 A 
HETATM   18  C   UNL     1       5.134  13.814  22.790  0.00  0.00     0.009 A 
HETATM   19  C   UNL     1       4.779  12.712  21.986  0.00  0.00    -0.035 A 
HETATM   20  C   UNL     1       3.367  12.213  22.147  0.00  0.00     0.050 C 
ENDBRANCH  13  14
ENDBRANCH   3   7
BRANCH   4  21
HETATM   21  O   UNL     1       5.052   7.706  22.583  0.00  0.00    -0.360 OA
HETATM   22  H   UNL     1       4.484   8.312  23.112  0.00  0.00     0.217 HD
ENDBRANCH   4  21
BRANCH   1  23
HETATM   23  C   UNL     1      10.028   9.989  23.749  0.00  0.00     0.256 C 
HETATM   24  N   UNL     1       9.845  11.160  24.486  0.00  0.00    -0.348 N 
HETATM   25  C   UNL     1       8.547  11.662  24.907  0.00  0.00     0.153 C 
HETATM   26  O   UNL     1      11.149   9.551  23.486  0.00  0.00    -0.267 OA
BRANCH  24  27
HETATM   27  C   UNL     1      10.962  12.107  24.572  0.00  0.00     0.164 C 
BRANCH  27  28
HETATM   28  C   UNL     1      10.892  13.453  23.856  0.00  0.00    -0.034 A 
HETATM   29  C   UNL     1      10.838  13.683  22.466  0.00  0.00    -0.054 A 
HETATM   30  C   UNL     1      10.967  12.597  21.436  0.00  0.00     0.049 C 
HETATM   31  C   UNL     1      10.634  14.998  21.986  0.00  0.00     0.007 A 
HETATM   32  C   UNL     1      10.496  16.083  22.849  0.00  0.00     0.001 A 
HETATM   33  C   UNL     1      10.560  15.875  24.217  0.00  0.00     0.001 A 
HETATM   34  C   UNL     1      10.747  14.579  24.709  0.00  0.00     0.009 A 
ENDBRANCH  27  28
ENDBRANCH  24  27
ENDBRANCH   1  23
BRANCH   6  35
HETATM   35  O   UNL     1       9.241   7.259  24.636  0.00  0.00    -0.360 OA
HETATM   36  H   UNL     1       9.809   7.889  25.123  0.00  0.00     0.217 HD
ENDBRANCH   6  35
TORSDOF 7
ENDMDL
MODEL 9
REMARK VINA RESULT:    -7.933      2.620      5.619
REMARK INTER + INTRA:         -13.146
REMARK INTER:                 -10.715
REMARK INTRA:                  -2.431
REMARK UNBOUND:                -2.431
REMARK  7 active torsions:
REMARK  status: ('A' for Active; 'I' for Inactive)
REMARK    1  A    between atoms: C_7  and  C_8 
REMARK    2  A    between atoms: C_8  and  N_9 
REMARK       I    between atoms: N_9  and  C_11 
REMARK    3  A    between atoms: C_11  and  C_13 
REMARK    4  A    between atoms: C_15  and  C_16 
REMARK    5  A    between atoms: N_22  and  C_23 
REMARK    6  A    between atoms: C_30  and  O_31 
REMARK    7  A    between atoms: C_33  and  O_34 
ROOT
HETATM    1  C   UNL     1       5.080  12.666  21.981  0.00  0.00     0.066 C 
HETATM    2  C   UNL     1       6.427  13.096  22.020  0.00  0.00     0.038 C 
HETATM    3  C   UNL     1       6.767  14.346  22.566  0.00  0.00     0.046 C 
HETATM    4  C   UNL     1       5.773  15.075  23.234  0.00  0.00     0.082 C 
HETATM    5  C   UNL     1       4.443  14.700  23.135  0.00  0.00     0.075 C 
HETATM    6  C   UNL     1       4.086  13.535  22.465  0.00  0.00     0.084 C 
ENDROOT
BRANCH   3   7
HETATM    7  C   UNL     1       8.105  14.990  22.454  0.00  0.00     0.172 C 
HETATM    8  N   UNL     1       8.210  16.219  22.005  0.00  0.00    -0.151 NA
HETATM    9  N   UNL     1       9.552  16.434  21.919  0.00  0.00    -0.226 N 
HETATM   10  H   UNL     1       9.948  17.224  21.425  0.00  0.00     0.194 HD
HETATM   11  C   UNL     1      10.260  15.275  22.232  0.00  0.00     0.349 C 
HETATM   12  O   UNL     1      11.449  15.118  22.008  0.00  0.00    -0.245 OA
HETATM   13  N   UNL     1       9.309  14.379  22.698  0.00  0.00    -0.244 N 
BRANCH  13  14
HETATM   14  C   UNL     1       9.611  13.040  23.018  0.00  0.00     0.051 A 
HETATM   15  C   UNL     1       9.665  12.646  24.367  0.00  0.00     0.031 A 
HETATM   16  C   UNL     1      10.095  11.367  24.732  0.00  0.00     0.002 A 
HETATM   17  C   UNL     1      10.482  10.462  23.755  0.00  0.00     0.001 A 
HETATM   18  C   UNL     1      10.364  10.813  22.409  0.00  0.00     0.009 A 
HETATM   19  C   UNL     1       9.894  12.083  22.019  0.00  0.00    -0.035 A 
HETATM   20  C   UNL     1       9.815  12.323  20.534  0.00  0.00     0.050 C 
ENDBRANCH  13  14
ENDBRANCH   3   7
BRANCH   4  21
HETATM   21  O   UNL     1       6.027  16.170  24.015  0.00  0.00    -0.360 OA
HETATM   22  H   UNL     1       5.241  16.761  23.974  0.00  0.00     0.217 HD
ENDBRANCH   4  21
BRANCH   1  23
HETATM   23  C   UNL     1       4.818  11.219  21.700  0.00  0.00     0.256 C 
HETATM   24  N   UNL     1       4.821  10.238  22.692  0.00  0.00    -0.348 N 
HETATM   25  C   UNL     1       4.952  10.516  24.113  0.00  0.00     0.153 C 
HETATM   26  O   UNL     1       4.618  10.950  20.515  0.00  0.00    -0.267 OA
BRANCH  24  27
HETATM   27  C   UNL     1       5.027   8.843  22.287  0.00  0.00     0.164 C 
BRANCH  27  28
HETATM   28  C   UNL     1       6.180   8.029  22.871  0.00  0.00    -0.034 A 
HETATM   29  C   UNL     1       6.101   6.989  23.820  0.00  0.00    -0.054 A 
HETATM   30  C   UNL     1       4.831   6.590  24.515  0.00  0.00     0.049 C 
HETATM   31  C   UNL     1       7.264   6.250  24.140  0.00  0.00     0.007 A 
HETATM   32  C   UNL     1       8.497   6.528  23.554  0.00  0.00     0.001 A 
HETATM   33  C   UNL     1       8.593   7.556  22.630  0.00  0.00     0.001 A 
HETATM   34  C   UNL     1       7.450   8.287  22.290  0.00  0.00     0.009 A 
ENDBRANCH  27  28
ENDBRANCH  24  27
ENDBRANCH   1  23
BRANCH   6  35
HETATM   35  O   UNL     1       2.754  13.267  22.334  0.00  0.00    -0.360 OA
HETATM   36  H   UNL     1       2.565  13.181  21.378  0.00  0.00     0.217 HD
ENDBRANCH   6  35
TORSDOF 7
ENDMDL
