MODEL 1
REMARK VINA RESULT:    -9.322      0.000      0.000
REMARK INTER + INTRA:         -11.961
REMARK INTER:                 -11.241
REMARK INTRA:                  -0.720
REMARK UNBOUND:                -0.460
REMARK  5 active torsions:
REMARK  status: ('A' for Active; 'I' for Inactive)
REMARK    1  A    between atoms: C_5  and  C_6 
REMARK    2  A    between atoms: C_6  and  O_7 
REMARK    3  A    between atoms: C_8  and  C_9 
REMARK    4  A    between atoms: C_16  and  N_17 
REMARK    5  A    between atoms: C_19  and  C_20 
REMARK       I    between atoms: C_20  and  N_22 
ROOT
HETATM    1  C   UNL     1       0.177  14.400  24.835  0.00  0.00    -0.024 A 
HETATM    2  C   UNL     1      -0.415  13.128  24.659  0.00  0.00     0.028 A 
HETATM    3  C   UNL     1      -0.337  15.148  25.899  0.00  0.00     0.014 A 
HETATM    4  C   UNL     1      -1.442  14.719  26.644  0.00  0.00     0.033 A 
HETATM    5  C   UNL     1      -2.021  13.481  26.449  0.00  0.00     0.073 A 
HETATM    6  C   UNL     1      -1.464  12.633  25.497  0.00  0.00     0.028 A 
HETATM    7  N   UNL     1      -3.081  13.167  27.199  0.00  0.00    -0.218 NA
HETATM    8  C   UNL     1      -3.605  11.957  27.055  0.00  0.00     0.200 A 
HETATM    9  N   UNL     1      -3.099  11.011  26.284  0.00  0.00    -0.212 NA
HETATM   10  C   UNL     1      -2.052  11.361  25.493  0.00  0.00     0.140 A 
ENDROOT
BRANCH  10  11
HETATM   11  C   UNL     1      -1.538  10.239  24.616  0.00  0.00     0.273 C 
HETATM   12  O   UNL     1      -1.777  10.247  23.405  0.00  0.00    -0.266 OA
HETATM   13  N   UNL     1      -0.796   9.230  25.217  0.00  0.00    -0.342 N 
HETATM   14  C   UNL     1      -0.167   8.135  24.478  0.00  0.00     0.139 C 
HETATM   15  C   UNL     1      -0.589   9.086  26.645  0.00  0.00     0.161 C 
HETATM   16  C   UNL     1      -0.221   6.953  25.451  0.00  0.00     0.056 C 
HETATM   17  C   UNL     1      -0.242   7.648  26.793  0.00  0.00    -0.056 C 
HETATM   18  C   UNL     1       0.851   5.895  25.413  0.00  0.00    -0.020 C 
HETATM   19  C   UNL     1       0.118   7.036  27.932  0.00  0.00    -0.018 C 
HETATM   20  C   UNL     1       0.656   5.633  27.905  0.00  0.00     0.054 C 
HETATM   21  C   UNL     1       1.218   5.264  26.547  0.00  0.00    -0.026 C 
ENDBRANCH  10  11
BRANCH   8  22
HETATM   22  N   UNL     1      -4.755  11.668  27.754  0.00  0.00    -0.271 NA
HETATM   23  H   UNL     1      -5.561  12.051  27.281  0.00  0.00     0.127 HD
HETATM   24  H   UNL     1      -4.643  11.879  28.735  0.00  0.00     0.127 HD
ENDBRANCH   8  22
BRANCH   1  25
HETATM   25  C   UNL     1       1.303  14.876  23.967  0.00  0.00    -0.018 A 
HETATM   26  C   UNL     1       2.571  14.256  24.105  0.00  0.00     0.013 A 
HETATM   27  C   UNL     1       3.686  14.624  23.343  0.00  0.00     0.001 A 
HETATM   28  C   UNL     1       3.587  15.662  22.434  0.00  0.00     0.001 A 
HETATM   29  C   UNL     1       2.368  16.305  22.270  0.00  0.00     0.010 A 
HETATM   30  C   UNL     1       1.215  15.910  22.993  0.00  0.00    -0.024 A 
BRANCH  30  31
HETATM   31  C   UNL     1      -0.045  16.669  22.639  0.00  0.00     0.203 C 
BRANCH  31  32
HETATM   32  O   UNL     1       0.103  17.363  21.405  0.00  0.00    -0.396 OA
HETATM   33  H   UNL     1       0.195  16.701  20.698  0.00  0.00     0.209 HD
ENDBRANCH  31  32
ENDBRANCH  30  31
ENDBRANCH   1  25
TORSDOF 5
ENDMDL
MODEL 2
REMARK VINA RESULT:    -9.144      2.744      6.927
REMARK INTER + INTRA:         -11.742
REMARK INTER:                 -10.801
REMARK INTRA:                  -0.940
REMARK UNBOUND:                -0.460
REMARK  5 active torsions:
REMARK  status: ('A' for Active; 'I' for Inactive)
REMARK    1  A    between atoms: C_5  and  C_6 
REMARK    2  A    between atoms: C_6  and  O_7 
REMARK    3  A    between atoms: C_8  and  C_9 
REMARK    4  A    between atoms: C_16  and  N_17 
REMARK    5  A    between atoms: C_19  and  C_20 
REMARK       I    between atoms: C_20  and  N_22 
ROOT
HETATM    1  C   UNL     1       0.125   9.212  26.061  0.00  0.00    -0.024 A 
HETATM    2  C   UNL     1      -0.767  10.011  25.310  0.00  0.00     0.028 A 
HETATM    3  C   UNL     1      -0.322   8.874  27.343  0.00  0.00     0.014 A 
HETATM    4  C   UNL     1      -1.502   9.400  27.881  0.00  0.00     0.033 A 
HETATM    5  C   UNL     1      -2.354  10.195  27.141  0.00  0.00     0.073 A 
HETATM    6  C   UNL     1      -2.032  10.451  25.812  0.00  0.00     0.028 A 
HETATM    7  N   UNL     1      -3.449  10.662  27.747  0.00  0.00    -0.218 NA
HETATM    8  C   UNL     1      -4.299  11.379  27.022  0.00  0.00     0.200 A 
HETATM    9  N   UNL     1      -4.182  11.589  25.723  0.00  0.00    -0.212 NA
HETATM   10  C   UNL     1      -3.041  11.148  25.134  0.00  0.00     0.140 A 
ENDROOT
BRANCH  10  11
HETATM   11  C   UNL     1      -2.958  11.445  23.651  0.00  0.00     0.273 C 
HETATM   12  O   UNL     1      -3.220  10.560  22.831  0.00  0.00    -0.266 OA
HETATM   13  N   UNL     1      -2.592  12.727  23.263  0.00  0.00    -0.342 N 
HETATM   14  C   UNL     1      -2.556  13.175  21.870  0.00  0.00     0.139 C 
HETATM   15  C   UNL     1      -2.144  13.774  24.162  0.00  0.00     0.161 C 
HETATM   16  C   UNL     1      -1.413  14.193  21.838  0.00  0.00     0.056 C 
HETATM   17  C   UNL     1      -1.388  14.688  23.266  0.00  0.00    -0.056 C 
HETATM   18  C   UNL     1      -1.458  15.348  20.871  0.00  0.00    -0.020 C 
HETATM   19  C   UNL     1      -0.838  15.862  23.617  0.00  0.00    -0.018 C 
HETATM   20  C   UNL     1      -0.294  16.791  22.570  0.00  0.00     0.054 C 
HETATM   21  C   UNL     1      -0.902  16.531  21.205  0.00  0.00    -0.026 C 
ENDBRANCH  10  11
BRANCH   8  22
HETATM   22  N   UNL     1      -5.376  11.943  27.669  0.00  0.00    -0.271 NA
HETATM   23  H   UNL     1      -6.000  11.226  28.006  0.00  0.00     0.127 HD
HETATM   24  H   UNL     1      -5.775  12.691  27.119  0.00  0.00     0.127 HD
ENDBRANCH   8  22
BRANCH   1  25
HETATM   25  C   UNL     1       1.427   8.730  25.495  0.00  0.00    -0.018 A 
HETATM   26  C   UNL     1       2.632   9.249  26.033  0.00  0.00     0.013 A 
HETATM   27  C   UNL     1       3.898   8.865  25.578  0.00  0.00     0.001 A 
HETATM   28  C   UNL     1       4.010   7.969  24.530  0.00  0.00     0.001 A 
HETATM   29  C   UNL     1       2.858   7.440  23.965  0.00  0.00     0.010 A 
HETATM   30  C   UNL     1       1.569   7.775  24.449  0.00  0.00    -0.024 A 
BRANCH  30  31
HETATM   31  C   UNL     1       0.429   7.052  23.766  0.00  0.00     0.203 C 
BRANCH  31  32
HETATM   32  O   UNL     1       0.883   5.867  23.122  0.00  0.00    -0.396 OA
HETATM   33  H   UNL     1       1.198   5.254  23.810  0.00  0.00     0.209 HD
ENDBRANCH  31  32
ENDBRANCH  30  31
ENDBRANCH   1  25
TORSDOF 5
ENDMDL
MODEL 3
REMARK VINA RESULT:    -9.110      3.124      5.075
REMARK INTER + INTRA:         -11.700
REMARK INTER:                 -10.640
REMARK INTRA:                  -1.061
REMARK UNBOUND:                -0.460
REMARK  5 active torsions:
REMARK  status: ('A' for Active; 'I' for Inactive)
REMARK    1  A    between atoms: C_5  and  C_6 
REMARK    2  A    between atoms: C_6  and  O_7 
REMARK    3  A    between atoms: C_8  and  C_9 
REMARK    4  A    between atoms: C_16  and  N_17 
REMARK    5  A    between atoms: C_19  and  C_20 
REMARK       I    between atoms: C_20  and  N_22 
ROOT
HETATM    1  C   UNL     1       1.802  15.649  21.577  0.00  0.00    -0.024 A 
HETATM    2  C   UNL     1       0.822  14.635  21.475  0.00  0.00     0.028 A 
HETATM    3  C   UNL     1       1.317  16.954  21.445  0.00  0.00     0.014 A 
HETATM    4  C   UNL     1      -0.015  17.221  21.106  0.00  0.00     0.033 A 
HETATM    5  C   UNL     1      -0.957  16.219  20.992  0.00  0.00     0.073 A 
HETATM    6  C   UNL     1      -0.564  14.909  21.250  0.00  0.00     0.028 A 
HETATM    7  N   UNL     1      -2.199  16.571  20.649  0.00  0.00    -0.218 NA
HETATM    8  C   UNL     1      -3.120  15.617  20.594  0.00  0.00     0.200 A 
HETATM    9  N   UNL     1      -2.914  14.358  20.939  0.00  0.00    -0.212 NA
HETATM   10  C   UNL     1      -1.637  14.008  21.238  0.00  0.00     0.140 A 
ENDROOT
BRANCH  10  11
HETATM   11  C   UNL     1      -1.465  12.547  21.597  0.00  0.00     0.273 C 
HETATM   12  O   UNL     1      -1.345  11.704  20.704  0.00  0.00    -0.266 OA
HETATM   13  N   UNL     1      -1.440  12.206  22.944  0.00  0.00    -0.342 N 
HETATM   14  C   UNL     1      -1.195  10.849  23.433  0.00  0.00     0.139 C 
HETATM   15  C   UNL     1      -1.705  13.119  24.039  0.00  0.00     0.161 C 
HETATM   16  C   UNL     1      -2.026  10.763  24.717  0.00  0.00     0.056 C 
HETATM   17  C   UNL     1      -2.090  12.209  25.151  0.00  0.00    -0.056 C 
HETATM   18  C   UNL     1      -1.571   9.883  25.852  0.00  0.00    -0.020 C 
HETATM   19  C   UNL     1      -2.356  12.576  26.415  0.00  0.00    -0.018 C 
HETATM   20  C   UNL     1      -2.515  11.539  27.490  0.00  0.00     0.054 C 
HETATM   21  C   UNL     1      -1.839  10.232  27.127  0.00  0.00    -0.026 C 
ENDBRANCH  10  11
BRANCH   8  22
HETATM   22  N   UNL     1      -4.375  15.962  20.146  0.00  0.00    -0.271 NA
HETATM   23  H   UNL     1      -5.072  15.347  20.541  0.00  0.00     0.127 HD
HETATM   24  H   UNL     1      -4.378  16.091  19.145  0.00  0.00     0.127 HD
ENDBRANCH   8  22
BRANCH   1  25
HETATM   25  C   UNL     1       3.242  15.334  21.855  0.00  0.00    -0.018 A 
HETATM   26  C   UNL     1       4.197  15.584  20.837  0.00  0.00     0.013 A 
HETATM   27  C   UNL     1       5.563  15.328  20.994  0.00  0.00     0.001 A 
HETATM   28  C   UNL     1       6.028  14.770  22.171  0.00  0.00     0.001 A 
HETATM   29  C   UNL     1       5.130  14.501  23.194  0.00  0.00     0.010 A 
HETATM   30  C   UNL     1       3.751  14.804  23.073  0.00  0.00    -0.024 A 
BRANCH  30  31
HETATM   31  C   UNL     1       2.928  14.512  24.309  0.00  0.00     0.203 C 
BRANCH  31  32
HETATM   32  O   UNL     1       2.405  13.187  24.277  0.00  0.00    -0.396 OA
HETATM   33  H   UNL     1       1.919  13.077  23.441  0.00  0.00     0.209 HD
ENDBRANCH  31  32
ENDBRANCH  30  31
ENDBRANCH   1  25
TORSDOF 5
ENDMDL
MODEL 4
REMARK VINA RESULT:    -9.094      1.865      2.351
REMARK INTER + INTRA:         -11.680
REMARK INTER:                 -10.612
REMARK INTRA:                  -1.068
REMARK UNBOUND:                -0.460
REMARK  5 active torsions:
REMARK  status: ('A' for Active; 'I' for Inactive)
REMARK    1  A    between atoms: C_5  and  C_6 
REMARK    2  A    between atoms: C_6  and  O_7 
REMARK    3  A    between atoms: C_8  and  C_9 
REMARK    4  A    between atoms: C_16  and  N_17 
REMARK    5  A    between atoms: C_19  and  C_20 
REMARK       I    between atoms: C_20  and  N_22 
ROOT
HETATM    1  C   UNL     1      -0.735  14.931  24.388  0.00  0.00    -0.024 A 
HETATM    2  C   UNL     1      -1.100  13.580  24.186  0.00  0.00     0.028 A 
HETATM    3  C   UNL     1      -1.200  15.496  25.580  0.00  0.00     0.014 A 
HETATM    4  C   UNL     1      -2.068  14.811  26.438  0.00  0.00     0.033 A 
HETATM    5  C   UNL     1      -2.430  13.498  26.219  0.00  0.00     0.073 A 
HETATM    6  C   UNL     1      -1.887  12.837  25.122  0.00  0.00     0.028 A 
HETATM    7  N   UNL     1      -3.276  12.934  27.085  0.00  0.00    -0.218 NA
HETATM    8  C   UNL     1      -3.581  11.655  26.910  0.00  0.00     0.200 A 
HETATM    9  N   UNL     1      -3.039  10.877  25.990  0.00  0.00    -0.212 NA
HETATM   10  C   UNL     1      -2.219  11.476  25.088  0.00  0.00     0.140 A 
ENDROOT
BRANCH  10  11
HETATM   11  C   UNL     1      -1.655  10.534  24.046  0.00  0.00     0.273 C 
HETATM   12  O   UNL     1      -2.326  10.243  23.052  0.00  0.00    -0.266 OA
HETATM   13  N   UNL     1      -0.376  10.030  24.248  0.00  0.00    -0.342 N 
HETATM   14  C   UNL     1       0.324   9.182  23.282  0.00  0.00     0.139 C 
HETATM   15  C   UNL     1       0.415  10.221  25.449  0.00  0.00     0.161 C 
HETATM   16  C   UNL     1       1.182   8.260  24.154  0.00  0.00     0.056 C 
HETATM   17  C   UNL     1       1.385   9.095  25.397  0.00  0.00    -0.056 C 
HETATM   18  C   UNL     1       2.498   7.741  23.636  0.00  0.00    -0.020 C 
HETATM   19  C   UNL     1       2.392   8.881  26.258  0.00  0.00    -0.018 C 
HETATM   20  C   UNL     1       3.433   7.837  25.967  0.00  0.00     0.054 C 
HETATM   21  C   UNL     1       3.517   7.511  24.489  0.00  0.00    -0.026 C 
ENDBRANCH  10  11
BRANCH   8  22
HETATM   22  N   UNL     1      -4.527  11.101  27.743  0.00  0.00    -0.271 NA
HETATM   23  H   UNL     1      -5.456  11.363  27.445  0.00  0.00     0.127 HD
HETATM   24  H   UNL     1      -4.287  11.251  28.712  0.00  0.00     0.127 HD
ENDBRANCH   8  22
BRANCH   1  25
HETATM   25  C   UNL     1       0.126  15.674  23.410  0.00  0.00    -0.018 A 
HETATM   26  C   UNL     1      -0.492  16.599  22.531  0.00  0.00     0.013 A 
HETATM   27  C   UNL     1       0.219  17.343  21.584  0.00  0.00     0.001 A 
HETATM   28  C   UNL     1       1.584  17.162  21.450  0.00  0.00     0.001 A 
HETATM   29  C   UNL     1       2.233  16.260  22.282  0.00  0.00     0.010 A 
HETATM   30  C   UNL     1       1.537  15.538  23.284  0.00  0.00    -0.024 A 
BRANCH  30  31
HETATM   31  C   UNL     1       2.409  14.654  24.148  0.00  0.00     0.203 C 
BRANCH  31  32
HETATM   32  O   UNL     1       3.657  14.387  23.516  0.00  0.00    -0.396 OA
HETATM   33  H   UNL     1       3.781  13.422  23.494  0.00  0.00     0.209 HD
ENDBRANCH  31  32
ENDBRANCH  30  31
ENDBRANCH   1  25
TORSDOF 5
ENDMDL
MODEL 5
REMARK VINA RESULT:    -9.084      1.630      1.676
REMARK INTER + INTRA:         -11.668
REMARK INTER:                 -10.837
REMARK INTRA:                  -0.831
REMARK UNBOUND:                -0.460
REMARK  5 active torsions:
REMARK  status: ('A' for Active; 'I' for Inactive)
REMARK    1  A    between atoms: C_5  and  C_6 
REMARK    2  A    between atoms: C_6  and  O_7 
REMARK    3  A    between atoms: C_8  and  C_9 
REMARK    4  A    between atoms: C_16  and  N_17 
REMARK    5  A    between atoms: C_19  and  C_20 
REMARK       I    between atoms: C_20  and  N_22 
ROOT
HETATM    1  C   UNL     1       0.180  14.668  24.658  0.00  0.00    -0.024 A 
HETATM    2  C   UNL     1      -0.403  13.400  24.437  0.00  0.00     0.028 A 
HETATM    3  C   UNL     1      -0.256  15.325  25.813  0.00  0.00     0.014 A 
HETATM    4  C   UNL     1      -1.286  14.817  26.612  0.00  0.00     0.033 A 
HETATM    5  C   UNL     1      -1.859  13.585  26.374  0.00  0.00     0.073 A 
HETATM    6  C   UNL     1      -1.369  12.821  25.319  0.00  0.00     0.028 A 
HETATM    7  N   UNL     1      -2.847  13.193  27.183  0.00  0.00    -0.218 NA
HETATM    8  C   UNL     1      -3.361  11.984  26.992  0.00  0.00     0.200 A 
HETATM    9  N   UNL     1      -2.905  11.109  26.114  0.00  0.00    -0.212 NA
HETATM   10  C   UNL     1      -1.934  11.540  25.268  0.00  0.00     0.140 A 
ENDROOT
BRANCH  10  11
HETATM   11  C   UNL     1      -1.476  10.496  24.271  0.00  0.00     0.273 C 
HETATM   12  O   UNL     1      -2.241  10.124  23.376  0.00  0.00    -0.266 OA
HETATM   13  N   UNL     1      -0.187   9.997  24.397  0.00  0.00    -0.342 N 
HETATM   14  C   UNL     1       0.414   9.052  23.454  0.00  0.00     0.139 C 
HETATM   15  C   UNL     1       0.717  10.288  25.494  0.00  0.00     0.161 C 
HETATM   16  C   UNL     1       1.346   8.203  24.323  0.00  0.00     0.056 C 
HETATM   17  C   UNL     1       1.672   9.149  25.456  0.00  0.00    -0.056 C 
HETATM   18  C   UNL     1       2.605   7.621  23.734  0.00  0.00    -0.020 C 
HETATM   19  C   UNL     1       2.756   9.002  26.234  0.00  0.00    -0.018 C 
HETATM   20  C   UNL     1       3.758   7.921  25.947  0.00  0.00     0.054 C 
HETATM   21  C   UNL     1       3.699   7.458  24.504  0.00  0.00    -0.026 C 
ENDBRANCH  10  11
BRANCH   8  22
HETATM   22  N   UNL     1      -4.444  11.619  27.760  0.00  0.00    -0.271 NA
HETATM   23  H   UNL     1      -5.071  11.032  27.229  0.00  0.00     0.127 HD
HETATM   24  H   UNL     1      -4.839  12.420  28.231  0.00  0.00     0.127 HD
ENDBRANCH   8  22
BRANCH   1  25
HETATM   25  C   UNL     1       1.222  15.233  23.738  0.00  0.00    -0.018 A 
HETATM   26  C   UNL     1       2.533  14.695  23.791  0.00  0.00     0.013 A 
HETATM   27  C   UNL     1       3.576  15.148  22.976  0.00  0.00     0.001 A 
HETATM   28  C   UNL     1       3.359  16.192  22.097  0.00  0.00     0.001 A 
HETATM   29  C   UNL     1       2.093  16.757  22.015  0.00  0.00     0.010 A 
HETATM   30  C   UNL     1       1.011  16.275  22.793  0.00  0.00    -0.024 A 
BRANCH  30  31
HETATM   31  C   UNL     1      -0.313  16.956  22.526  0.00  0.00     0.203 C 
BRANCH  31  32
HETATM   32  O   UNL     1      -1.159  16.139  21.722  0.00  0.00    -0.396 OA
HETATM   33  H   UNL     1      -1.477  15.404  22.275  0.00  0.00     0.209 HD
ENDBRANCH  31  32
ENDBRANCH  30  31
ENDBRANCH   1  25
TORSDOF 5
ENDMDL
MODEL 6
REMARK VINA RESULT:    -9.065      1.613      2.002
REMARK INTER + INTRA:         -11.644
REMARK INTER:                 -10.833
REMARK INTRA:                  -0.811
REMARK UNBOUND:                -0.460
REMARK  5 active torsions:
REMARK  status: ('A' for Active; 'I' for Inactive)
REMARK    1  A    between atoms: C_5  and  C_6 
REMARK    2  A    between atoms: C_6  and  O_7 
REMARK    3  A    between atoms: C_8  and  C_9 
REMARK    4  A    between atoms: C_16  and  N_17 
REMARK    5  A    between atoms: C_19  and  C_20 
REMARK       I    between atoms: C_20  and  N_22 
ROOT
HETATM    1  C   UNL     1       1.077  14.733  23.108  0.00  0.00    -0.024 A 
HETATM    2  C   UNL     1       0.406  13.490  23.166  0.00  0.00     0.028 A 
HETATM    3  C   UNL     1       0.388  15.803  23.689  0.00  0.00     0.014 A 
HETATM    4  C   UNL     1      -0.920  15.672  24.170  0.00  0.00     0.033 A 
HETATM    5  C   UNL     1      -1.569  14.455  24.203  0.00  0.00     0.073 A 
HETATM    6  C   UNL     1      -0.882  13.326  23.768  0.00  0.00     0.028 A 
HETATM    7  N   UNL     1      -2.822  14.433  24.666  0.00  0.00    -0.218 NA
HETATM    8  C   UNL     1      -3.429  13.256  24.753  0.00  0.00     0.200 A 
HETATM    9  N   UNL     1      -2.851  12.096  24.496  0.00  0.00    -0.212 NA
HETATM   10  C   UNL     1      -1.595  12.139  23.982  0.00  0.00     0.140 A 
ENDROOT
BRANCH  10  11
HETATM   11  C   UNL     1      -1.002  10.778  23.685  0.00  0.00     0.273 C 
HETATM   12  O   UNL     1      -0.911  10.388  22.517  0.00  0.00    -0.266 OA
HETATM   13  N   UNL     1      -0.567  10.010  24.757  0.00  0.00    -0.342 N 
HETATM   14  C   UNL     1       0.103   8.717  24.611  0.00  0.00     0.139 C 
HETATM   15  C   UNL     1      -0.761  10.344  26.156  0.00  0.00     0.161 C 
HETATM   16  C   UNL     1      -0.341   7.928  25.845  0.00  0.00     0.056 C 
HETATM   17  C   UNL     1      -0.635   9.029  26.838  0.00  0.00    -0.056 C 
HETATM   18  C   UNL     1       0.573   6.892  26.449  0.00  0.00    -0.020 C 
HETATM   19  C   UNL     1      -0.660   8.822  28.164  0.00  0.00    -0.018 C 
HETATM   20  C   UNL     1      -0.301   7.478  28.732  0.00  0.00     0.054 C 
HETATM   21  C   UNL     1       0.552   6.666  27.778  0.00  0.00    -0.026 C 
ENDBRANCH  10  11
BRANCH   8  22
HETATM   22  N   UNL     1      -4.752  13.243  25.136  0.00  0.00    -0.271 NA
HETATM   23  H   UNL     1      -5.116  14.184  25.177  0.00  0.00     0.127 HD
HETATM   24  H   UNL     1      -4.888  12.653  25.944  0.00  0.00     0.127 HD
ENDBRANCH   8  22
BRANCH   1  25
HETATM   25  C   UNL     1       2.445  14.868  22.509  0.00  0.00    -0.018 A 
HETATM   26  C   UNL     1       3.559  14.408  23.256  0.00  0.00     0.013 A 
HETATM   27  C   UNL     1       4.875  14.485  22.788  0.00  0.00     0.001 A 
HETATM   28  C   UNL     1       5.137  15.067  21.561  0.00  0.00     0.001 A 
HETATM   29  C   UNL     1       4.079  15.540  20.796  0.00  0.00     0.010 A 
HETATM   30  C   UNL     1       2.735  15.420  21.230  0.00  0.00    -0.024 A 
BRANCH  30  31
HETATM   31  C   UNL     1       1.704  15.922  20.242  0.00  0.00     0.203 C 
BRANCH  31  32
HETATM   32  O   UNL     1       1.469  17.316  20.408  0.00  0.00    -0.396 OA
HETATM   33  H   UNL     1       1.760  17.767  19.596  0.00  0.00     0.209 HD
ENDBRANCH  31  32
ENDBRANCH  30  31
ENDBRANCH   1  25
TORSDOF 5
ENDMDL
MODEL 7
REMARK VINA RESULT:    -9.029      2.705      3.805
REMARK INTER + INTRA:         -11.600
REMARK INTER:                 -10.496
REMARK INTRA:                  -1.104
REMARK UNBOUND:                -0.460
REMARK  5 active torsions:
REMARK  status: ('A' for Active; 'I' for Inactive)
REMARK    1  A    between atoms: C_5  and  C_6 
REMARK    2  A    between atoms: C_6  and  O_7 
REMARK    3  A    between atoms: C_8  and  C_9 
REMARK    4  A    between atoms: C_16  and  N_17 
REMARK    5  A    between atoms: C_19  and  C_20 
REMARK       I    between atoms: C_20  and  N_22 
ROOT
HETATM    1  C   UNL     1       0.794  15.104  21.985  0.00  0.00    -0.024 A 
HETATM    2  C   UNL     1       0.048  13.905  21.908  0.00  0.00     0.028 A 
HETATM    3  C   UNL     1       0.030  16.266  22.130  0.00  0.00     0.014 A 
HETATM    4  C   UNL     1      -1.368  16.249  22.070  0.00  0.00     0.033 A 
HETATM    5  C   UNL     1      -2.083  15.072  21.977  0.00  0.00     0.073 A 
HETATM    6  C   UNL     1      -1.381  13.871  21.970  0.00  0.00     0.028 A 
HETATM    7  N   UNL     1      -3.415  15.158  21.911  0.00  0.00    -0.218 NA
HETATM    8  C   UNL     1      -4.108  14.027  21.879  0.00  0.00     0.200 A 
HETATM    9  N   UNL     1      -3.578  12.823  21.996  0.00  0.00    -0.212 NA
HETATM   10  C   UNL     1      -2.222  12.751  22.014  0.00  0.00     0.140 A 
ENDROOT
BRANCH  10  11
HETATM   11  C   UNL     1      -1.680  11.341  22.121  0.00  0.00     0.273 C 
HETATM   12  O   UNL     1      -1.594  10.636  21.111  0.00  0.00    -0.266 OA
HETATM   13  N   UNL     1      -1.285  10.889  23.374  0.00  0.00    -0.342 N 
HETATM   14  C   UNL     1      -0.664   9.584  23.608  0.00  0.00     0.139 C 
HETATM   15  C   UNL     1      -1.479  11.609  24.619  0.00  0.00     0.161 C 
HETATM   16  C   UNL     1      -1.151   9.189  25.005  0.00  0.00     0.056 C 
HETATM   17  C   UNL     1      -1.411  10.534  25.644  0.00  0.00    -0.056 C 
HETATM   18  C   UNL     1      -0.284   8.333  25.892  0.00  0.00    -0.020 C 
HETATM   19  C   UNL     1      -1.456  10.708  26.974  0.00  0.00    -0.018 C 
HETATM   20  C   UNL     1      -1.155   9.566  27.903  0.00  0.00     0.054 C 
HETATM   21  C   UNL     1      -0.325   8.489  27.231  0.00  0.00    -0.026 C 
ENDBRANCH  10  11
BRANCH   8  22
HETATM   22  N   UNL     1      -5.471  14.115  21.711  0.00  0.00    -0.271 NA
HETATM   23  H   UNL     1      -5.927  14.269  22.599  0.00  0.00     0.127 HD
HETATM   24  H   UNL     1      -5.813  13.359  21.135  0.00  0.00     0.127 HD
ENDBRANCH   8  22
BRANCH   1  25
HETATM   25  C   UNL     1       2.294  15.107  21.959  0.00  0.00    -0.018 A 
HETATM   26  C   UNL     1       2.949  15.531  20.775  0.00  0.00     0.013 A 
HETATM   27  C   UNL     1       4.341  15.574  20.648  0.00  0.00     0.001 A 
HETATM   28  C   UNL     1       5.141  15.151  21.694  0.00  0.00     0.001 A 
HETATM   29  C   UNL     1       4.545  14.718  22.871  0.00  0.00     0.010 A 
HETATM   30  C   UNL     1       3.138  14.720  23.037  0.00  0.00    -0.024 A 
BRANCH  30  31
HETATM   31  C   UNL     1       2.662  14.286  24.406  0.00  0.00     0.203 C 
BRANCH  31  32
HETATM   32  O   UNL     1       2.290  12.912  24.409  0.00  0.00    -0.396 OA
HETATM   33  H   UNL     1       2.476  12.550  23.525  0.00  0.00     0.209 HD
ENDBRANCH  31  32
ENDBRANCH  30  31
ENDBRANCH   1  25
TORSDOF 5
ENDMDL
MODEL 8
REMARK VINA RESULT:    -9.017      2.425      7.003
REMARK INTER + INTRA:         -11.585
REMARK INTER:                 -10.444
REMARK INTRA:                  -1.142
REMARK UNBOUND:                -0.460
REMARK  5 active torsions:
REMARK  status: ('A' for Active; 'I' for Inactive)
REMARK    1  A    between atoms: C_5  and  C_6 
REMARK    2  A    between atoms: C_6  and  O_7 
REMARK    3  A    between atoms: C_8  and  C_9 
REMARK    4  A    between atoms: C_16  and  N_17 
REMARK    5  A    between atoms: C_19  and  C_20 
REMARK       I    between atoms: C_20  and  N_22 
ROOT
HETATM    1  C   UNL     1       0.199   8.844  25.372  0.00  0.00    -0.024 A 
HETATM    2  C   UNL     1      -0.232   9.826  24.451  0.00  0.00     0.028 A 
HETATM    3  C   UNL     1      -0.646   8.652  26.469  0.00  0.00     0.014 A 
HETATM    4  C   UNL     1      -1.762   9.465  26.699  0.00  0.00     0.033 A 
HETATM    5  C   UNL     1      -2.161  10.432  25.799  0.00  0.00     0.073 A 
HETATM    6  C   UNL     1      -1.438  10.576  24.619  0.00  0.00     0.028 A 
HETATM    7  N   UNL     1      -3.230  11.169  26.114  0.00  0.00    -0.218 NA
HETATM    8  C   UNL     1      -3.651  12.061  25.226  0.00  0.00     0.200 A 
HETATM    9  N   UNL     1      -3.138  12.211  24.017  0.00  0.00    -0.212 NA
HETATM   10  C   UNL     1      -2.024  11.489  23.732  0.00  0.00     0.140 A 
ENDROOT
BRANCH  10  11
HETATM   11  C   UNL     1      -1.472  11.729  22.342  0.00  0.00     0.273 C 
HETATM   12  O   UNL     1      -1.980  11.157  21.373  0.00  0.00    -0.266 OA
HETATM   13  N   UNL     1      -0.403  12.605  22.208  0.00  0.00    -0.342 N 
HETATM   14  C   UNL     1       0.171  12.994  20.919  0.00  0.00     0.139 C 
HETATM   15  C   UNL     1       0.325  13.207  23.309  0.00  0.00     0.161 C 
HETATM   16  C   UNL     1       1.655  13.211  21.225  0.00  0.00     0.056 C 
HETATM   17  C   UNL     1       1.627  13.573  22.693  0.00  0.00    -0.056 C 
HETATM   18  C   UNL     1       2.448  14.223  20.439  0.00  0.00    -0.020 C 
HETATM   19  C   UNL     1       2.626  14.238  23.295  0.00  0.00    -0.018 C 
HETATM   20  C   UNL     1       3.797  14.738  22.497  0.00  0.00     0.054 C 
HETATM   21  C   UNL     1       3.461  14.892  21.027  0.00  0.00    -0.026 C 
ENDBRANCH  10  11
BRANCH   8  22
HETATM   22  N   UNL     1      -4.690  12.887  25.589  0.00  0.00    -0.271 NA
HETATM   23  H   UNL     1      -4.957  12.718  26.548  0.00  0.00     0.127 HD
HETATM   24  H   UNL     1      -5.421  12.876  24.891  0.00  0.00     0.127 HD
ENDBRANCH   8  22
BRANCH   1  25
HETATM   25  C   UNL     1       1.448   8.043  25.150  0.00  0.00    -0.018 A 
HETATM   26  C   UNL     1       2.658   8.502  25.729  0.00  0.00     0.013 A 
HETATM   27  C   UNL     1       3.876   7.829  25.584  0.00  0.00     0.001 A 
HETATM   28  C   UNL     1       3.942   6.682  24.815  0.00  0.00     0.001 A 
HETATM   29  C   UNL     1       2.784   6.198  24.220  0.00  0.00     0.010 A 
HETATM   30  C   UNL     1       1.532   6.836  24.401  0.00  0.00    -0.024 A 
BRANCH  30  31
HETATM   31  C   UNL     1       0.364   6.135  23.742  0.00  0.00     0.203 C 
BRANCH  31  32
HETATM   32  O   UNL     1      -0.388   5.386  24.692  0.00  0.00    -0.396 OA
HETATM   33  H   UNL     1      -1.178   5.905  24.924  0.00  0.00     0.209 HD
ENDBRANCH  31  32
ENDBRANCH  30  31
ENDBRANCH   1  25
TORSDOF 5
ENDMDL
MODEL 9
REMARK VINA RESULT:    -8.996      1.671      2.041
REMARK INTER + INTRA:         -11.560
REMARK INTER:                 -11.100
REMARK INTRA:                  -0.460
REMARK UNBOUND:                -0.460
REMARK  5 active torsions:
REMARK  status: ('A' for Active; 'I' for Inactive)
REMARK    1  A    between atoms: C_5  and  C_6 
REMARK    2  A    between atoms: C_6  and  O_7 
REMARK    3  A    between atoms: C_8  and  C_9 
REMARK    4  A    between atoms: C_16  and  N_17 
REMARK    5  A    between atoms: C_19  and  C_20 
REMARK       I    between atoms: C_20  and  N_22 
ROOT
HETATM    1  C   UNL     1       0.260  13.612  24.335  0.00  0.00    -0.024 A 
HETATM    2  C   UNL     1      -0.198  12.309  24.638  0.00  0.00     0.028 A 
HETATM    3  C   UNL     1      -0.447  14.646  24.954  0.00  0.00     0.014 A 
HETATM    4  C   UNL     1      -1.601  14.409  25.710  0.00  0.00     0.033 A 
HETATM    5  C   UNL     1      -2.048  13.132  25.984  0.00  0.00     0.073 A 
HETATM    6  C   UNL     1      -1.304  12.056  25.510  0.00  0.00     0.028 A 
HETATM    7  N   UNL     1      -3.168  13.006  26.701  0.00  0.00    -0.218 NA
HETATM    8  C   UNL     1      -3.569  11.780  27.014  0.00  0.00     0.200 A 
HETATM    9  N   UNL     1      -2.891  10.680  26.740  0.00  0.00    -0.212 NA
HETATM   10  C   UNL     1      -1.781  10.821  25.970  0.00  0.00     0.140 A 
ENDROOT
BRANCH  10  11
HETATM   11  C   UNL     1      -1.067   9.519  25.671  0.00  0.00     0.273 C 
HETATM   12  O   UNL     1      -0.956   9.133  24.504  0.00  0.00    -0.266 OA
HETATM   13  N   UNL     1      -0.547   8.801  26.741  0.00  0.00    -0.342 N 
HETATM   14  C   UNL     1       0.239   7.576  26.591  0.00  0.00     0.139 C 
HETATM   15  C   UNL     1      -0.753   9.124  28.140  0.00  0.00     0.161 C 
HETATM   16  C   UNL     1      -0.114   6.756  27.835  0.00  0.00     0.056 C 
HETATM   17  C   UNL     1      -0.496   7.831  28.827  0.00  0.00    -0.056 C 
HETATM   18  C   UNL     1       0.901   5.814  28.430  0.00  0.00    -0.020 C 
HETATM   19  C   UNL     1      -0.484   7.630  30.154  0.00  0.00    -0.018 C 
HETATM   20  C   UNL     1       0.007   6.329  30.723  0.00  0.00     0.054 C 
HETATM   21  C   UNL     1       0.920   5.595  29.761  0.00  0.00    -0.026 C 
ENDBRANCH  10  11
BRANCH   8  22
HETATM   22  N   UNL     1      -4.773  11.646  27.667  0.00  0.00    -0.271 NA
HETATM   23  H   UNL     1      -5.528  11.562  27.002  0.00  0.00     0.127 HD
HETATM   24  H   UNL     1      -4.867  12.339  28.396  0.00  0.00     0.127 HD
ENDBRANCH   8  22
BRANCH   1  25
HETATM   25  C   UNL     1       1.449  13.847  23.450  0.00  0.00    -0.018 A 
HETATM   26  C   UNL     1       2.669  14.250  24.050  0.00  0.00     0.013 A 
HETATM   27  C   UNL     1       3.835  14.493  23.316  0.00  0.00     0.001 A 
HETATM   28  C   UNL     1       3.817  14.382  21.938  0.00  0.00     0.001 A 
HETATM   29  C   UNL     1       2.643  13.998  21.304  0.00  0.00     0.010 A 
HETATM   30  C   UNL     1       1.468  13.694  22.035  0.00  0.00    -0.024 A 
BRANCH  30  31
HETATM   31  C   UNL     1       0.303  13.224  21.193  0.00  0.00     0.203 C 
BRANCH  31  32
HETATM   32  O   UNL     1       0.446  11.852  20.837  0.00  0.00    -0.396 OA
HETATM   33  H   UNL     1       0.635  11.351  21.649  0.00  0.00     0.209 HD
ENDBRANCH  31  32
ENDBRANCH  30  31
ENDBRANCH   1  25
TORSDOF 5
ENDMDL
