MODEL 1
REMARK VINA RESULT:   -10.126      0.000      0.000
REMARK INTER + INTRA:         -12.578
REMARK INTER:                 -11.505
REMARK INTRA:                  -1.073
REMARK UNBOUND:                -0.380
REMARK  4 active torsions:
REMARK  status: ('A' for Active; 'I' for Inactive)
REMARK    1  A    between atoms: N_1  and  C_2 
REMARK    2  A    between atoms: C_7  and  C_8 
REMARK       I    between atoms: C_8  and  N_10 
REMARK    3  A    between atoms: N_10  and  C_11 
REMARK    4  A    between atoms: C_23  and  C_24 
ROOT
HETATM    1  C   UNL     1       6.813  10.835  21.912  0.00  0.00     0.153 C 
HETATM    2  C   UNL     1       6.914  12.323  22.192  0.00  0.00    -0.020 A 
HETATM    3  C   UNL     1       6.031  13.328  21.804  0.00  0.00     0.010 A 
HETATM    4  C   UNL     1       6.186  14.602  22.346  0.00  0.00     0.001 A 
HETATM    5  C   UNL     1       7.188  14.847  23.288  0.00  0.00     0.001 A 
HETATM    6  C   UNL     1       8.072  13.830  23.672  0.00  0.00     0.013 A 
HETATM    7  C   UNL     1       7.975  12.568  23.101  0.00  0.00    -0.016 A 
HETATM    8  C   UNL     1       8.755  11.334  23.284  0.00  0.00    -0.003 A 
HETATM    9  C   UNL     1       8.111  10.317  22.507  0.00  0.00    -0.019 A 
HETATM   10  C   UNL     1       8.567   9.007  22.465  0.00  0.00     0.010 A 
HETATM   11  C   UNL     1       9.700   8.689  23.201  0.00  0.00     0.002 A 
HETATM   12  C   UNL     1      10.355   9.670  23.965  0.00  0.00     0.016 A 
HETATM   13  C   UNL     1       9.907  11.012  24.026  0.00  0.00     0.022 A 
ENDROOT
BRANCH   1  14
HETATM   14  N   UNL     1       6.522  10.443  20.545  0.00  0.00    -0.343 N 
HETATM   15  C   UNL     1       5.333   9.769  20.298  0.00  0.00     0.273 C 
HETATM   16  O   UNL     1       4.509   9.628  21.190  0.00  0.00    -0.266 OA
HETATM   17  H   UNL     1       7.210  10.555  19.808  0.00  0.00     0.163 HD
BRANCH  15  18
HETATM   18  C   UNL     1       5.069   9.213  18.924  0.00  0.00     0.150 A 
HETATM   19  C   UNL     1       4.530  10.015  17.924  0.00  0.00     0.086 A 
HETATM   20  C   UNL     1       4.365   9.392  16.710  0.00  0.00     0.146 A 
HETATM   21 CL   UNL     1       4.038  11.658  18.038  0.00  0.00    -0.080 Cl
HETATM   22  N   UNL     1       4.663   8.100  16.484  0.00  0.00    -0.229 NA
HETATM   23  C   UNL     1       5.134   7.400  17.518  0.00  0.00     0.199 A 
HETATM   24  N   UNL     1       5.378   7.895  18.741  0.00  0.00    -0.211 NA
BRANCH  23  25
HETATM   25  N   UNL     1       5.392   6.071  17.267  0.00  0.00    -0.271 NA
HETATM   26  H   UNL     1       5.977   5.690  18.001  0.00  0.00     0.127 HD
HETATM   27  H   UNL     1       4.559   5.559  17.027  0.00  0.00     0.127 HD
ENDBRANCH  23  25
ENDBRANCH  15  18
ENDBRANCH   1  14
BRANCH  13  28
HETATM   28  C   UNL     1      10.680  11.976  24.833  0.00  0.00     0.140 A 
HETATM   29  N   UNL     1      10.585  12.169  26.133  0.00  0.00    -0.227 NA
HETATM   30  C   UNL     1      11.534  13.099  26.473  0.00  0.00     0.103 A 
HETATM   31  C   UNL     1      11.922  13.583  27.724  0.00  0.00     0.150 A 
HETATM   32  C   UNL     1      12.170  13.582  25.338  0.00  0.00     0.065 A 
HETATM   33  N   UNL     1      12.884  14.540  27.819  0.00  0.00    -0.271 NA
HETATM   34  C   UNL     1      13.446  15.011  26.680  0.00  0.00     0.118 A 
HETATM   35  C   UNL     1      13.143  14.576  25.393  0.00  0.00     0.051 A 
HETATM   36  N   UNL     1      11.614  12.857  24.312  0.00  0.00    -0.338 N 
HETATM   37  H   UNL     1      11.873  12.926  23.339  0.00  0.00     0.167 HD
ENDBRANCH  13  28
TORSDOF 4
ENDMDL
MODEL 2
REMARK VINA RESULT:    -9.915      4.925      5.935
REMARK INTER + INTRA:         -12.324
REMARK INTER:                 -11.868
REMARK INTRA:                  -0.455
REMARK UNBOUND:                -0.380
REMARK  4 active torsions:
REMARK  status: ('A' for Active; 'I' for Inactive)
REMARK    1  A    between atoms: N_1  and  C_2 
REMARK    2  A    between atoms: C_7  and  C_8 
REMARK       I    between atoms: C_8  and  N_10 
REMARK    3  A    between atoms: N_10  and  C_11 
REMARK    4  A    between atoms: C_23  and  C_24 
ROOT
HETATM    1  C   UNL     1       3.236  12.668  24.054  0.00  0.00     0.153 C 
HETATM    2  C   UNL     1       3.993  13.932  23.690  0.00  0.00    -0.020 A 
HETATM    3  C   UNL     1       3.502  15.234  23.627  0.00  0.00     0.010 A 
HETATM    4  C   UNL     1       4.405  16.285  23.487  0.00  0.00     0.001 A 
HETATM    5  C   UNL     1       5.778  16.029  23.449  0.00  0.00     0.001 A 
HETATM    6  C   UNL     1       6.263  14.717  23.513  0.00  0.00     0.013 A 
HETATM    7  C   UNL     1       5.379  13.649  23.593  0.00  0.00    -0.016 A 
HETATM    8  C   UNL     1       5.585  12.193  23.652  0.00  0.00    -0.003 A 
HETATM    9  C   UNL     1       4.295  11.599  23.844  0.00  0.00    -0.019 A 
HETATM   10  C   UNL     1       4.114  10.229  23.970  0.00  0.00     0.010 A 
HETATM   11  C   UNL     1       5.235   9.415  23.894  0.00  0.00     0.002 A 
HETATM   12  C   UNL     1       6.511   9.972  23.699  0.00  0.00     0.016 A 
HETATM   13  C   UNL     1       6.721  11.367  23.570  0.00  0.00     0.022 A 
ENDROOT
BRANCH   1  14
HETATM   14  N   UNL     1       1.959  12.457  23.400  0.00  0.00    -0.343 N 
HETATM   15  C   UNL     1       0.846  13.109  23.912  0.00  0.00     0.273 C 
HETATM   16  O   UNL     1       0.973  13.931  24.808  0.00  0.00    -0.266 OA
HETATM   17  H   UNL     1       1.854  11.769  22.660  0.00  0.00     0.163 HD
BRANCH  15  18
HETATM   18  C   UNL     1      -0.519  12.796  23.356  0.00  0.00     0.150 A 
HETATM   19  C   UNL     1      -0.822  13.060  22.025  0.00  0.00     0.086 A 
HETATM   20  C   UNL     1      -2.091  12.701  21.640  0.00  0.00     0.146 A 
HETATM   21 CL   UNL     1       0.184  13.791  20.838  0.00  0.00    -0.080 Cl
HETATM   22  N   UNL     1      -3.002  12.162  22.469  0.00  0.00    -0.229 NA
HETATM   23  C   UNL     1      -2.632  11.986  23.740  0.00  0.00     0.199 A 
HETATM   24  N   UNL     1      -1.415  12.256  24.235  0.00  0.00    -0.211 NA
BRANCH  23  25
HETATM   25  N   UNL     1      -3.598  11.469  24.574  0.00  0.00    -0.271 NA
HETATM   26  H   UNL     1      -4.434  11.258  24.041  0.00  0.00     0.127 HD
HETATM   27  H   UNL     1      -3.237  10.746  25.174  0.00  0.00     0.127 HD
ENDBRANCH  23  25
ENDBRANCH  15  18
ENDBRANCH   1  14
BRANCH  13  28
HETATM   28  C   UNL     1       8.095  11.853  23.338  0.00  0.00     0.140 A 
HETATM   29  N   UNL     1       8.792  11.742  22.225  0.00  0.00    -0.227 NA
HETATM   30  C   UNL     1       9.981  12.393  22.426  0.00  0.00     0.103 A 
HETATM   31  C   UNL     1      11.031  12.660  21.544  0.00  0.00     0.150 A 
HETATM   32  C   UNL     1      10.079  12.832  23.739  0.00  0.00     0.065 A 
HETATM   33  N   UNL     1      12.143  13.308  21.981  0.00  0.00    -0.271 NA
HETATM   34  C   UNL     1      12.209  13.680  23.281  0.00  0.00     0.118 A 
HETATM   35  C   UNL     1      11.209  13.481  24.228  0.00  0.00     0.051 A 
HETATM   36  N   UNL     1       8.873  12.480  24.297  0.00  0.00    -0.338 N 
HETATM   37  H   UNL     1       8.585  12.682  25.243  0.00  0.00     0.167 HD
ENDBRANCH  13  28
TORSDOF 4
ENDMDL
MODEL 3
REMARK VINA RESULT:    -9.884      4.828      9.509
REMARK INTER + INTRA:         -12.286
REMARK INTER:                 -11.280
REMARK INTRA:                  -1.007
REMARK UNBOUND:                -0.380
REMARK  4 active torsions:
REMARK  status: ('A' for Active; 'I' for Inactive)
REMARK    1  A    between atoms: N_1  and  C_2 
REMARK    2  A    between atoms: C_7  and  C_8 
REMARK       I    between atoms: C_8  and  N_10 
REMARK    3  A    between atoms: N_10  and  C_11 
REMARK    4  A    between atoms: C_23  and  C_24 
ROOT
HETATM    1  C   UNL     1       6.611  13.075  23.978  0.00  0.00     0.153 C 
HETATM    2  C   UNL     1       5.893  11.802  23.568  0.00  0.00    -0.020 A 
HETATM    3  C   UNL     1       6.413  10.512  23.496  0.00  0.00     0.010 A 
HETATM    4  C   UNL     1       5.538   9.445  23.310  0.00  0.00     0.001 A 
HETATM    5  C   UNL     1       4.161   9.673  23.236  0.00  0.00     0.001 A 
HETATM    6  C   UNL     1       3.646  10.973  23.310  0.00  0.00     0.013 A 
HETATM    7  C   UNL     1       4.504  12.058  23.435  0.00  0.00    -0.016 A 
HETATM    8  C   UNL     1       4.265  13.508  23.514  0.00  0.00    -0.003 A 
HETATM    9  C   UNL     1       5.535  14.125  23.755  0.00  0.00    -0.019 A 
HETATM   10  C   UNL     1       5.683  15.496  23.912  0.00  0.00     0.010 A 
HETATM   11  C   UNL     1       4.547  16.287  23.817  0.00  0.00     0.002 A 
HETATM   12  C   UNL     1       3.290  15.707  23.574  0.00  0.00     0.016 A 
HETATM   13  C   UNL     1       3.114  14.311  23.414  0.00  0.00     0.022 A 
ENDROOT
BRANCH   1  14
HETATM   14  N   UNL     1       7.902  13.325  23.365  0.00  0.00    -0.343 N 
HETATM   15  C   UNL     1       9.035  13.217  24.160  0.00  0.00     0.273 C 
HETATM   16  O   UNL     1       8.944  12.801  25.306  0.00  0.00    -0.266 OA
HETATM   17  H   UNL     1       7.974  13.678  22.416  0.00  0.00     0.163 HD
BRANCH  15  18
HETATM   18  C   UNL     1      10.374  13.618  23.601  0.00  0.00     0.150 A 
HETATM   19  C   UNL     1      11.087  14.678  24.152  0.00  0.00     0.086 A 
HETATM   20  C   UNL     1      12.305  14.921  23.566  0.00  0.00     0.146 A 
HETATM   21 CL   UNL     1      10.615  15.709  25.444  0.00  0.00    -0.080 Cl
HETATM   22  N   UNL     1      12.786  14.227  22.520  0.00  0.00    -0.229 NA
HETATM   23  C   UNL     1      12.010  13.257  22.032  0.00  0.00     0.199 A 
HETATM   24  N   UNL     1      10.820  12.892  22.534  0.00  0.00    -0.211 NA
BRANCH  23  25
HETATM   25  N   UNL     1      12.511  12.590  20.936  0.00  0.00    -0.271 NA
HETATM   26  H   UNL     1      12.848  13.258  20.252  0.00  0.00     0.127 HD
HETATM   27  H   UNL     1      13.131  11.841  21.196  0.00  0.00     0.127 HD
ENDBRANCH  23  25
ENDBRANCH  15  18
ENDBRANCH   1  14
BRANCH  13  28
HETATM   28  C   UNL     1       1.759  13.801  23.132  0.00  0.00     0.140 A 
HETATM   29  N   UNL     1       0.933  13.240  23.992  0.00  0.00    -0.227 NA
HETATM   30  C   UNL     1      -0.237  12.986  23.324  0.00  0.00     0.103 A 
HETATM   31  C   UNL     1      -1.460  12.496  23.788  0.00  0.00     0.150 A 
HETATM   32  C   UNL     1      -0.105  13.298  21.978  0.00  0.00     0.065 A 
HETATM   33  N   UNL     1      -2.489  12.297  22.923  0.00  0.00    -0.271 NA
HETATM   34  C   UNL     1      -2.299  12.577  21.612  0.00  0.00     0.118 A 
HETATM   35  C   UNL     1      -1.129  13.088  21.059  0.00  0.00     0.051 A 
HETATM   36  N   UNL     1       1.166  13.812  21.879  0.00  0.00    -0.338 N 
HETATM   37  H   UNL     1       1.586  14.178  21.038  0.00  0.00     0.167 HD
ENDBRANCH  13  28
TORSDOF 4
ENDMDL
MODEL 4
REMARK VINA RESULT:    -9.817      2.443      9.575
REMARK INTER + INTRA:         -12.206
REMARK INTER:                 -11.182
REMARK INTRA:                  -1.023
REMARK UNBOUND:                -0.380
REMARK  4 active torsions:
REMARK  status: ('A' for Active; 'I' for Inactive)
REMARK    1  A    between atoms: N_1  and  C_2 
REMARK    2  A    between atoms: C_7  and  C_8 
REMARK       I    between atoms: C_8  and  N_10 
REMARK    3  A    between atoms: N_10  and  C_11 
REMARK    4  A    between atoms: C_23  and  C_24 
ROOT
HETATM    1  C   UNL     1       8.276  10.693  23.975  0.00  0.00     0.153 C 
HETATM    2  C   UNL     1       8.368   9.250  23.514  0.00  0.00    -0.020 A 
HETATM    3  C   UNL     1       9.004   8.188  24.151  0.00  0.00     0.010 A 
HETATM    4  C   UNL     1       8.789   6.896  23.678  0.00  0.00     0.001 A 
HETATM    5  C   UNL     1       7.920   6.677  22.606  0.00  0.00     0.001 A 
HETATM    6  C   UNL     1       7.283   7.751  21.971  0.00  0.00     0.013 A 
HETATM    7  C   UNL     1       7.529   9.053  22.387  0.00  0.00    -0.016 A 
HETATM    8  C   UNL     1       7.036  10.356  21.912  0.00  0.00    -0.003 A 
HETATM    9  C   UNL     1       7.550  11.346  22.811  0.00  0.00    -0.019 A 
HETATM   10  C   UNL     1       7.262  12.697  22.678  0.00  0.00     0.010 A 
HETATM   11  C   UNL     1       6.453  13.089  21.621  0.00  0.00     0.002 A 
HETATM   12  C   UNL     1       5.942  12.138  20.722  0.00  0.00     0.016 A 
HETATM   13  C   UNL     1       6.219  10.754  20.838  0.00  0.00     0.022 A 
ENDROOT
BRANCH   1  14
HETATM   14  N   UNL     1       9.509  11.323  24.409  0.00  0.00    -0.343 N 
HETATM   15  C   UNL     1       9.433  12.294  25.399  0.00  0.00     0.273 C 
HETATM   16  O   UNL     1       8.373  12.513  25.965  0.00  0.00    -0.266 OA
HETATM   17  H   UNL     1      10.387  11.145  23.932  0.00  0.00     0.163 HD
BRANCH  15  18
HETATM   18  C   UNL     1      10.667  13.076  25.765  0.00  0.00     0.150 A 
HETATM   19  C   UNL     1      10.961  14.279  25.131  0.00  0.00     0.086 A 
HETATM   20  C   UNL     1      12.100  14.904  25.579  0.00  0.00     0.146 A 
HETATM   21 CL   UNL     1      10.089  15.044  23.863  0.00  0.00    -0.080 Cl
HETATM   22  N   UNL     1      12.905  14.402  26.531  0.00  0.00    -0.229 NA
HETATM   23  C   UNL     1      12.563  13.220  27.049  0.00  0.00     0.199 A 
HETATM   24  N   UNL     1      11.461  12.526  26.731  0.00  0.00    -0.211 NA
BRANCH  23  25
HETATM   25  N   UNL     1      13.428  12.714  27.994  0.00  0.00    -0.271 NA
HETATM   26  H   UNL     1      13.212  11.740  28.170  0.00  0.00     0.127 HD
HETATM   27  H   UNL     1      14.388  12.946  27.796  0.00  0.00     0.127 HD
ENDBRANCH  23  25
ENDBRANCH  15  18
ENDBRANCH   1  14
BRANCH  13  28
HETATM   28  C   UNL     1       5.661   9.837  19.826  0.00  0.00     0.140 A 
HETATM   29  N   UNL     1       4.514   9.192  19.894  0.00  0.00    -0.227 NA
HETATM   30  C   UNL     1       4.359   8.516  18.711  0.00  0.00     0.103 A 
HETATM   31  C   UNL     1       3.285   7.765  18.229  0.00  0.00     0.150 A 
HETATM   32  C   UNL     1       5.492   8.654  17.921  0.00  0.00     0.065 A 
HETATM   33  N   UNL     1       3.368   7.152  17.018  0.00  0.00    -0.271 NA
HETATM   34  C   UNL     1       4.510   7.282  16.301  0.00  0.00     0.118 A 
HETATM   35  C   UNL     1       5.621   8.025  16.686  0.00  0.00     0.051 A 
HETATM   36  N   UNL     1       6.302   9.495  18.646  0.00  0.00    -0.338 N 
HETATM   37  H   UNL     1       7.202   9.841  18.348  0.00  0.00     0.167 HD
ENDBRANCH  13  28
TORSDOF 4
ENDMDL
MODEL 5
REMARK VINA RESULT:    -9.758      4.835      6.399
REMARK INTER + INTRA:         -12.135
REMARK INTER:                 -11.680
REMARK INTRA:                  -0.455
REMARK UNBOUND:                -0.380
REMARK  4 active torsions:
REMARK  status: ('A' for Active; 'I' for Inactive)
REMARK    1  A    between atoms: N_1  and  C_2 
REMARK    2  A    between atoms: C_7  and  C_8 
REMARK       I    between atoms: C_8  and  N_10 
REMARK    3  A    between atoms: N_10  and  C_11 
REMARK    4  A    between atoms: C_23  and  C_24 
ROOT
HETATM    1  C   UNL     1       3.366  13.320  22.150  0.00  0.00     0.153 C 
HETATM    2  C   UNL     1       4.521  12.527  21.566  0.00  0.00    -0.020 A 
HETATM    3  C   UNL     1       4.464  11.493  20.635  0.00  0.00     0.010 A 
HETATM    4  C   UNL     1       5.650  11.041  20.062  0.00  0.00     0.001 A 
HETATM    5  C   UNL     1       6.865  11.645  20.395  0.00  0.00     0.001 A 
HETATM    6  C   UNL     1       6.913  12.685  21.332  0.00  0.00     0.013 A 
HETATM    7  C   UNL     1       5.751  13.112  21.961  0.00  0.00    -0.016 A 
HETATM    8  C   UNL     1       5.497  14.143  22.980  0.00  0.00    -0.003 A 
HETATM    9  C   UNL     1       4.076  14.211  23.156  0.00  0.00    -0.019 A 
HETATM   10  C   UNL     1       3.473  15.102  24.031  0.00  0.00     0.010 A 
HETATM   11  C   UNL     1       4.292  15.946  24.767  0.00  0.00     0.002 A 
HETATM   12  C   UNL     1       5.689  15.895  24.619  0.00  0.00     0.016 A 
HETATM   13  C   UNL     1       6.328  14.996  23.730  0.00  0.00     0.022 A 
ENDROOT
BRANCH   1  14
HETATM   14  N   UNL     1       2.231  12.562  22.640  0.00  0.00    -0.343 N 
HETATM   15  C   UNL     1       0.965  13.113  22.494  0.00  0.00     0.273 C 
HETATM   16  O   UNL     1       0.813  14.147  21.860  0.00  0.00    -0.266 OA
HETATM   17  H   UNL     1       2.360  11.707  23.173  0.00  0.00     0.163 HD
BRANCH  15  18
HETATM   18  C   UNL     1      -0.219  12.428  23.126  0.00  0.00     0.150 A 
HETATM   19  C   UNL     1      -0.043  11.319  23.947  0.00  0.00     0.086 A 
HETATM   20  C   UNL     1      -1.202  10.808  24.481  0.00  0.00     0.146 A 
HETATM   21 CL   UNL     1       1.426  10.520  24.343  0.00  0.00    -0.080 Cl
HETATM   22  N   UNL     1      -2.426  11.299  24.225  0.00  0.00    -0.229 NA
HETATM   23  C   UNL     1      -2.497  12.339  23.390  0.00  0.00     0.199 A 
HETATM   24  N   UNL     1      -1.444  12.956  22.833  0.00  0.00    -0.211 NA
BRANCH  23  25
HETATM   25  N   UNL     1      -3.766  12.795  23.115  0.00  0.00    -0.271 NA
HETATM   26  H   UNL     1      -4.444  12.069  23.318  0.00  0.00     0.127 HD
HETATM   27  H   UNL     1      -3.937  13.707  23.505  0.00  0.00     0.127 HD
ENDBRANCH  23  25
ENDBRANCH  15  18
ENDBRANCH   1  14
BRANCH  13  28
HETATM   28  C   UNL     1       7.801  14.997  23.667  0.00  0.00     0.140 A 
HETATM   29  N   UNL     1       8.625  14.382  24.492  0.00  0.00    -0.227 NA
HETATM   30  C   UNL     1       9.897  14.589  24.021  0.00  0.00     0.103 A 
HETATM   31  C   UNL     1      11.121  14.078  24.461  0.00  0.00     0.150 A 
HETATM   32  C   UNL     1       9.878  15.447  22.932  0.00  0.00     0.065 A 
HETATM   33  N   UNL     1      12.276  14.450  23.847  0.00  0.00    -0.271 NA
HETATM   34  C   UNL     1      12.210  15.323  22.814  0.00  0.00     0.118 A 
HETATM   35  C   UNL     1      11.041  15.866  22.291  0.00  0.00     0.051 A 
HETATM   36  N   UNL     1       8.542  15.692  22.724  0.00  0.00    -0.338 N 
HETATM   37  H   UNL     1       8.158  16.255  21.980  0.00  0.00     0.167 HD
ENDBRANCH  13  28
TORSDOF 4
ENDMDL
MODEL 6
REMARK VINA RESULT:    -9.753      1.621      2.169
REMARK INTER + INTRA:         -12.129
REMARK INTER:                 -11.700
REMARK INTRA:                  -0.429
REMARK UNBOUND:                -0.380
REMARK  4 active torsions:
REMARK  status: ('A' for Active; 'I' for Inactive)
REMARK    1  A    between atoms: N_1  and  C_2 
REMARK    2  A    between atoms: C_7  and  C_8 
REMARK       I    between atoms: C_8  and  N_10 
REMARK    3  A    between atoms: N_10  and  C_11 
REMARK    4  A    between atoms: C_23  and  C_24 
ROOT
HETATM    1  C   UNL     1       5.942  10.982  22.784  0.00  0.00     0.153 C 
HETATM    2  C   UNL     1       6.240  12.469  22.840  0.00  0.00    -0.020 A 
HETATM    3  C   UNL     1       5.392  13.524  22.513  0.00  0.00     0.010 A 
HETATM    4  C   UNL     1       5.778  14.821  22.840  0.00  0.00     0.001 A 
HETATM    5  C   UNL     1       6.980  15.046  23.517  0.00  0.00     0.001 A 
HETATM    6  C   UNL     1       7.827  13.979  23.842  0.00  0.00     0.013 A 
HETATM    7  C   UNL     1       7.491  12.683  23.473  0.00  0.00    -0.016 A 
HETATM    8  C   UNL     1       8.175  11.392  23.652  0.00  0.00    -0.003 A 
HETATM    9  C   UNL     1       7.285  10.380  23.164  0.00  0.00    -0.019 A 
HETATM   10  C   UNL     1       7.597   9.029  23.202  0.00  0.00     0.010 A 
HETATM   11  C   UNL     1       8.828   8.660  23.725  0.00  0.00     0.002 A 
HETATM   12  C   UNL     1       9.722   9.633  24.204  0.00  0.00     0.016 A 
HETATM   13  C   UNL     1       9.425  11.018  24.179  0.00  0.00     0.022 A 
ENDROOT
BRANCH   1  14
HETATM   14  N   UNL     1       5.325  10.482  21.570  0.00  0.00    -0.343 N 
HETATM   15  C   UNL     1       5.971  10.718  20.364  0.00  0.00     0.273 C 
HETATM   16  O   UNL     1       7.084  11.223  20.351  0.00  0.00    -0.266 OA
HETATM   17  H   UNL     1       4.398  10.070  21.583  0.00  0.00     0.163 HD
BRANCH  15  18
HETATM   18  C   UNL     1       5.288  10.350  19.073  0.00  0.00     0.150 A 
HETATM   19  C   UNL     1       5.249   9.029  18.640  0.00  0.00     0.086 A 
HETATM   20  C   UNL     1       4.571   8.828  17.462  0.00  0.00     0.146 A 
HETATM   21 CL   UNL     1       5.957   7.653  19.387  0.00  0.00    -0.080 Cl
HETATM   22  N   UNL     1       4.005   9.814  16.744  0.00  0.00    -0.229 NA
HETATM   23  C   UNL     1       4.133  11.055  17.219  0.00  0.00     0.199 A 
HETATM   24  N   UNL     1       4.733  11.384  18.372  0.00  0.00    -0.211 NA
BRANCH  23  25
HETATM   25  N   UNL     1       3.578  12.047  16.442  0.00  0.00    -0.271 NA
HETATM   26  H   UNL     1       3.888  12.954  16.771  0.00  0.00     0.127 HD
HETATM   27  H   UNL     1       3.668  11.856  15.458  0.00  0.00     0.127 HD
ENDBRANCH  23  25
ENDBRANCH  15  18
ENDBRANCH   1  14
BRANCH  13  28
HETATM   28  C   UNL     1      10.441  11.964  24.677  0.00  0.00     0.140 A 
HETATM   29  N   UNL     1      11.223  12.735  23.949  0.00  0.00    -0.227 NA
HETATM   30  C   UNL     1      11.956  13.502  24.817  0.00  0.00     0.103 A 
HETATM   31  C   UNL     1      12.854  14.544  24.572  0.00  0.00     0.150 A 
HETATM   32  C   UNL     1      11.705  13.125  26.129  0.00  0.00     0.065 A 
HETATM   33  N   UNL     1      13.496  15.151  25.606  0.00  0.00    -0.271 NA
HETATM   34  C   UNL     1      13.249  14.720  26.866  0.00  0.00     0.118 A 
HETATM   35  C   UNL     1      12.358  13.709  27.211  0.00  0.00     0.051 A 
HETATM   36  N   UNL     1      10.743  12.151  26.016  0.00  0.00    -0.338 N 
HETATM   37  H   UNL     1      10.297  11.676  26.787  0.00  0.00     0.167 HD
ENDBRANCH  13  28
TORSDOF 4
ENDMDL
MODEL 7
REMARK VINA RESULT:    -9.603      1.523      2.019
REMARK INTER + INTRA:         -11.948
REMARK INTER:                 -10.951
REMARK INTRA:                  -0.997
REMARK UNBOUND:                -0.380
REMARK  4 active torsions:
REMARK  status: ('A' for Active; 'I' for Inactive)
REMARK    1  A    between atoms: N_1  and  C_2 
REMARK    2  A    between atoms: C_7  and  C_8 
REMARK       I    between atoms: C_8  and  N_10 
REMARK    3  A    between atoms: N_10  and  C_11 
REMARK    4  A    between atoms: C_23  and  C_24 
ROOT
HETATM    1  C   UNL     1       6.507  10.566  22.378  0.00  0.00     0.153 C 
HETATM    2  C   UNL     1       6.711  12.068  22.446  0.00  0.00    -0.020 A 
HETATM    3  C   UNL     1       5.842  13.069  22.017  0.00  0.00     0.010 A 
HETATM    4  C   UNL     1       6.116  14.389  22.367  0.00  0.00     0.001 A 
HETATM    5  C   UNL     1       7.224  14.689  23.163  0.00  0.00     0.001 A 
HETATM    6  C   UNL     1       8.092  13.676  23.591  0.00  0.00     0.013 A 
HETATM    7  C   UNL     1       7.873  12.360  23.205  0.00  0.00    -0.016 A 
HETATM    8  C   UNL     1       8.607  11.112  23.473  0.00  0.00    -0.003 A 
HETATM    9  C   UNL     1       7.834  10.047  22.906  0.00  0.00    -0.019 A 
HETATM   10  C   UNL     1       8.218   8.716  22.994  0.00  0.00     0.010 A 
HETATM   11  C   UNL     1       9.405   8.424  23.649  0.00  0.00     0.002 A 
HETATM   12  C   UNL     1      10.185   9.452  24.207  0.00  0.00     0.016 A 
HETATM   13  C   UNL     1       9.813  10.816  24.133  0.00  0.00     0.022 A 
ENDROOT
BRANCH   1  14
HETATM   14  N   UNL     1       6.053  10.022  21.112  0.00  0.00    -0.343 N 
HETATM   15  C   UNL     1       5.244   8.893  21.138  0.00  0.00     0.273 C 
HETATM   16  O   UNL     1       4.833   8.456  22.203  0.00  0.00    -0.266 OA
HETATM   17  H   UNL     1       6.401  10.383  20.230  0.00  0.00     0.163 HD
BRANCH  15  18
HETATM   18  C   UNL     1       4.881   8.212  19.845  0.00  0.00     0.150 A 
HETATM   19  C   UNL     1       5.376   6.948  19.544  0.00  0.00     0.086 A 
HETATM   20  C   UNL     1       4.945   6.430  18.346  0.00  0.00     0.146 A 
HETATM   21 CL   UNL     1       6.459   5.990  20.472  0.00  0.00    -0.080 Cl
HETATM   22  N   UNL     1       4.134   7.082  17.496  0.00  0.00    -0.229 NA
HETATM   23  C   UNL     1       3.746   8.309  17.852  0.00  0.00     0.199 A 
HETATM   24  N   UNL     1       4.061   8.914  19.007  0.00  0.00    -0.211 NA
BRANCH  23  25
HETATM   25  N   UNL     1       2.949   8.967  16.943  0.00  0.00    -0.271 NA
HETATM   26  H   UNL     1       3.026   9.968  17.080  0.00  0.00     0.127 HD
HETATM   27  H   UNL     1       3.069   8.618  16.007  0.00  0.00     0.127 HD
ENDBRANCH  23  25
ENDBRANCH  15  18
ENDBRANCH   1  14
BRANCH  13  28
HETATM   28  C   UNL     1      10.714  11.824  24.723  0.00  0.00     0.140 A 
HETATM   29  N   UNL     1      11.570  12.590  24.077  0.00  0.00    -0.227 NA
HETATM   30  C   UNL     1      12.142  13.425  25.002  0.00  0.00     0.103 A 
HETATM   31  C   UNL     1      13.033  14.489  24.836  0.00  0.00     0.150 A 
HETATM   32  C   UNL     1      11.714  13.101  26.281  0.00  0.00     0.065 A 
HETATM   33  N   UNL     1      13.496  15.168  25.919  0.00  0.00    -0.271 NA
HETATM   34  C   UNL     1      13.080  14.788  27.151  0.00  0.00     0.118 A 
HETATM   35  C   UNL     1      12.180  13.760  27.415  0.00  0.00     0.051 A 
HETATM   36  N   UNL     1      10.810  12.085  26.081  0.00  0.00    -0.338 N 
HETATM   37  H   UNL     1      10.271  11.630  26.802  0.00  0.00     0.167 HD
ENDBRANCH  13  28
TORSDOF 4
ENDMDL
MODEL 8
REMARK VINA RESULT:    -9.105      3.274     10.488
REMARK INTER + INTRA:         -11.348
REMARK INTER:                 -10.435
REMARK INTRA:                  -0.913
REMARK UNBOUND:                -0.380
REMARK  4 active torsions:
REMARK  status: ('A' for Active; 'I' for Inactive)
REMARK    1  A    between atoms: N_1  and  C_2 
REMARK    2  A    between atoms: C_7  and  C_8 
REMARK       I    between atoms: C_8  and  N_10 
REMARK    3  A    between atoms: N_10  and  C_11 
REMARK    4  A    between atoms: C_23  and  C_24 
ROOT
HETATM    1  C   UNL     1       5.971   9.994  20.350  0.00  0.00     0.153 C 
HETATM    2  C   UNL     1       6.238   8.500  20.327  0.00  0.00    -0.020 A 
HETATM    3  C   UNL     1       7.018   7.758  21.212  0.00  0.00     0.010 A 
HETATM    4  C   UNL     1       6.961   6.368  21.150  0.00  0.00     0.001 A 
HETATM    5  C   UNL     1       6.108   5.740  20.239  0.00  0.00     0.001 A 
HETATM    6  C   UNL     1       5.328   6.494  19.354  0.00  0.00     0.013 A 
HETATM    7  C   UNL     1       5.412   7.881  19.356  0.00  0.00    -0.016 A 
HETATM    8  C   UNL     1       4.748   8.916  18.548  0.00  0.00    -0.003 A 
HETATM    9  C   UNL     1       5.146  10.182  19.088  0.00  0.00    -0.019 A 
HETATM   10  C   UNL     1       4.685  11.389  18.582  0.00  0.00     0.010 A 
HETATM   11  C   UNL     1       3.813  11.351  17.503  0.00  0.00     0.002 A 
HETATM   12  C   UNL     1       3.412  10.122  16.950  0.00  0.00     0.016 A 
HETATM   13  C   UNL     1       3.867   8.878  17.451  0.00  0.00     0.022 A 
ENDROOT
BRANCH   1  14
HETATM   14  N   UNL     1       7.120  10.865  20.512  0.00  0.00    -0.343 N 
HETATM   15  C   UNL     1       7.233  11.584  21.694  0.00  0.00     0.273 C 
HETATM   16  O   UNL     1       6.450  11.387  22.612  0.00  0.00    -0.266 OA
HETATM   17  H   UNL     1       7.765  11.032  19.746  0.00  0.00     0.163 HD
BRANCH  15  18
HETATM   18  C   UNL     1       8.327  12.610  21.835  0.00  0.00     0.150 A 
HETATM   19  C   UNL     1       8.027  13.928  22.162  0.00  0.00     0.086 A 
HETATM   20  C   UNL     1       9.118  14.754  22.287  0.00  0.00     0.146 A 
HETATM   21 CL   UNL     1       6.477  14.630  22.403  0.00  0.00    -0.080 Cl
HETATM   22  N   UNL     1      10.386  14.357  22.084  0.00  0.00    -0.229 NA
HETATM   23  C   UNL     1      10.570  13.083  21.730  0.00  0.00     0.199 A 
HETATM   24  N   UNL     1       9.599  12.165  21.613  0.00  0.00    -0.211 NA
BRANCH  23  25
HETATM   25  N   UNL     1      11.876  12.716  21.491  0.00  0.00    -0.271 NA
HETATM   26  H   UNL     1      12.287  12.339  22.337  0.00  0.00     0.127 HD
HETATM   27  H   UNL     1      11.971  12.172  20.649  0.00  0.00     0.127 HD
ENDBRANCH  23  25
ENDBRANCH  15  18
ENDBRANCH   1  14
BRANCH  13  28
HETATM   28  C   UNL     1       3.413   7.643  16.784  0.00  0.00     0.140 A 
HETATM   29  N   UNL     1       2.558   6.760  17.259  0.00  0.00    -0.227 NA
HETATM   30  C   UNL     1       2.370   5.815  16.284  0.00  0.00     0.103 A 
HETATM   31  C   UNL     1       1.498   4.724  16.233  0.00  0.00     0.150 A 
HETATM   32  C   UNL     1       3.212   6.053  15.207  0.00  0.00     0.065 A 
HETATM   33  N   UNL     1       1.505   3.893  15.157  0.00  0.00    -0.271 NA
HETATM   34  C   UNL     1       2.374   4.143  14.149  0.00  0.00     0.118 A 
HETATM   35  C   UNL     1       3.262   5.213  14.098  0.00  0.00     0.051 A 
HETATM   36  N   UNL     1       3.862   7.215  15.545  0.00  0.00    -0.338 N 
HETATM   37  H   UNL     1       4.530   7.702  14.966  0.00  0.00     0.167 HD
ENDBRANCH  13  28
TORSDOF 4
ENDMDL
MODEL 9
REMARK VINA RESULT:    -8.679      4.053      5.666
REMARK INTER + INTRA:         -10.835
REMARK INTER:                 -10.455
REMARK INTRA:                  -0.380
REMARK UNBOUND:                -0.380
REMARK  4 active torsions:
REMARK  status: ('A' for Active; 'I' for Inactive)
REMARK    1  A    between atoms: N_1  and  C_2 
REMARK    2  A    between atoms: C_7  and  C_8 
REMARK       I    between atoms: C_8  and  N_10 
REMARK    3  A    between atoms: N_10  and  C_11 
REMARK    4  A    between atoms: C_23  and  C_24 
ROOT
HETATM    1  C   UNL     1       5.802   9.662  22.497  0.00  0.00     0.153 C 
HETATM    2  C   UNL     1       7.083   9.241  23.194  0.00  0.00    -0.020 A 
HETATM    3  C   UNL     1       7.486   7.953  23.536  0.00  0.00     0.010 A 
HETATM    4  C   UNL     1       8.793   7.753  23.973  0.00  0.00     0.001 A 
HETATM    5  C   UNL     1       9.685   8.827  24.030  0.00  0.00     0.001 A 
HETATM    6  C   UNL     1       9.271  10.120  23.684  0.00  0.00     0.013 A 
HETATM    7  C   UNL     1       7.957  10.353  23.302  0.00  0.00    -0.016 A 
HETATM    8  C   UNL     1       7.240  11.577  22.912  0.00  0.00    -0.003 A 
HETATM    9  C   UNL     1       5.924  11.177  22.510  0.00  0.00    -0.019 A 
HETATM   10  C   UNL     1       4.975  12.080  22.051  0.00  0.00     0.010 A 
HETATM   11  C   UNL     1       5.326  13.421  21.998  0.00  0.00     0.002 A 
HETATM   12  C   UNL     1       6.608  13.841  22.393  0.00  0.00     0.016 A 
HETATM   13  C   UNL     1       7.594  12.938  22.862  0.00  0.00     0.022 A 
ENDROOT
BRANCH   1  14
HETATM   14  N   UNL     1       4.563   9.105  23.007  0.00  0.00    -0.343 N 
HETATM   15  C   UNL     1       4.209   9.391  24.318  0.00  0.00     0.273 C 
HETATM   16  O   UNL     1       4.864  10.191  24.972  0.00  0.00    -0.266 OA
HETATM   17  H   UNL     1       4.026   8.435  22.465  0.00  0.00     0.163 HD
BRANCH  15  18
HETATM   18  C   UNL     1       3.014   8.708  24.929  0.00  0.00     0.150 A 
HETATM   19  C   UNL     1       3.163   7.535  25.661  0.00  0.00     0.086 A 
HETATM   20  C   UNL     1       1.997   7.031  26.186  0.00  0.00     0.146 A 
HETATM   21 CL   UNL     1       4.607   6.652  25.958  0.00  0.00    -0.080 Cl
HETATM   22  N   UNL     1       0.788   7.588  25.999  0.00  0.00    -0.229 NA
HETATM   23  C   UNL     1       0.741   8.689  25.246  0.00  0.00     0.199 A 
HETATM   24  N   UNL     1       1.804   9.304  24.708  0.00  0.00    -0.211 NA
BRANCH  23  25
HETATM   25  N   UNL     1      -0.515   9.214  25.040  0.00  0.00    -0.271 NA
HETATM   26  H   UNL     1      -0.444  10.202  24.826  0.00  0.00     0.127 HD
HETATM   27  H   UNL     1      -1.069   8.646  24.419  0.00  0.00     0.127 HD
ENDBRANCH  23  25
ENDBRANCH  15  18
ENDBRANCH   1  14
BRANCH  13  28
HETATM   28  C   UNL     1       8.900  13.479  23.283  0.00  0.00     0.140 A 
HETATM   29  N   UNL     1      10.053  13.325  22.663  0.00  0.00    -0.227 NA
HETATM   30  C   UNL     1      10.985  14.054  23.358  0.00  0.00     0.103 A 
HETATM   31  C   UNL     1      12.329  14.312  23.076  0.00  0.00     0.150 A 
HETATM   32  C   UNL     1      10.423  14.592  24.506  0.00  0.00     0.065 A 
HETATM   33  N   UNL     1      13.078  15.050  23.937  0.00  0.00    -0.271 NA
HETATM   34  C   UNL     1      12.496  15.520  25.066  0.00  0.00     0.118 A 
HETATM   35  C   UNL     1      11.163  15.336  25.421  0.00  0.00     0.051 A 
HETATM   36  N   UNL     1       9.103  14.217  24.438  0.00  0.00    -0.338 N 
HETATM   37  H   UNL     1       8.387  14.472  25.101  0.00  0.00     0.167 HD
ENDBRANCH  13  28
TORSDOF 4
ENDMDL
