MODEL 1
REMARK VINA RESULT:    -6.247      0.000      0.000
REMARK INTER + INTRA:          -9.028
REMARK INTER:                  -8.110
REMARK INTRA:                  -0.918
REMARK UNBOUND:                -0.955
REMARK  5 active torsions:
REMARK  status: ('A' for Active; 'I' for Inactive)
REMARK    1  A    between atoms: N8_1  and  C24_2 
REMARK    2  A    between atoms: N8_1  and  C7_8 
REMARK    3  A    between atoms: C2_13  and  N1_14 
REMARK    4  A    between atoms: N1_14  and  C17_15 
REMARK    5  A    between atoms: C14_16  and  C13_19 
ROOT
ATOM      1  C17 FTA A   1       8.553  18.319  20.153  1.00  0.00     0.142 C 
ATOM      2  C14 FTA A   1       8.147  18.522  21.423  1.00  0.00     0.158 C 
ATOM      3  C18 FTA A   1       9.075  19.030  22.410  1.00  0.00     0.069 C 
ATOM      4  N21 FTA A   1       9.945  19.387  23.111  1.00  0.00    -0.197 NA
ENDROOT
BRANCH   2   5
ATOM      5  C13 FTA A   1       6.743  18.235  21.793  1.00  0.00     0.197 A 
ATOM      6  N15 FTA A   1       6.073  18.717  22.916  1.00  0.00    -0.093 NA
ATOM      7  N19 FTA A   1       4.796  18.172  22.907  1.00  0.00    -0.231 N 
ATOM      8  N20 FTA A   1       4.658  17.353  21.796  1.00  0.00    -0.017 NA
ATOM      9  H15 FTA A   1       4.067  18.347  23.613  1.00  0.00     0.200 HD
ATOM     10  N16 FTA A   1       5.861  17.399  21.098  1.00  0.00    -0.090 NA
ENDBRANCH   2   5
BRANCH   1  11
ATOM     11  N1  FTA A   1       8.344  17.115  19.587  1.00  0.00    -0.389 N 
ATOM     12  H11 FTA A   1       8.505  16.281  20.170  1.00  0.00     0.159 HD
BRANCH  11  13
ATOM     13  C2  FTA A   1       7.919  16.907  18.247  1.00  0.00     0.028 A 
ATOM     14  C4  FTA A   1       8.587  17.469  17.162  1.00  0.00     0.031 A 
ATOM     15  C6  FTA A   1       7.990  17.418  15.895  1.00  0.00     0.031 A 
ATOM     16  C7  FTA A   1       6.747  16.825  15.686  1.00  0.00     0.032 A 
ATOM     17  C5  FTA A   1       6.108  16.249  16.769  1.00  0.00     0.031 A 
ATOM     18  C3  FTA A   1       6.678  16.300  18.036  1.00  0.00     0.031 A 
BRANCH  16  19
ATOM     19  N8  FTA A   1       6.033  16.945  14.467  1.00  0.00    -0.356 N 
ATOM     20  H1  FTA A   1       5.974  17.883  14.044  1.00  0.00     0.166 HD
BRANCH  19  21
ATOM     21  C24 FTA A   1       5.389  15.874  13.777  1.00  0.00     0.032 A 
ATOM     22  C26 FTA A   1       6.092  14.783  13.323  1.00  0.00     0.029 A 
ATOM     23  C28 FTA A   1       5.445  13.867  12.515  1.00  0.00     0.002 A 
ATOM     24  C30 FTA A   1       4.108  13.991  12.174  1.00  0.00     0.000 A 
ATOM     25  C29 FTA A   1       3.387  15.053  12.652  1.00  0.00     0.002 A 
ATOM     26  C27 FTA A   1       4.041  15.984  13.467  1.00  0.00     0.029 A 
ENDBRANCH  19  21
ENDBRANCH  16  19
ENDBRANCH  11  13
ENDBRANCH   1  11
TORSDOF 5
ENDMDL
MODEL 2
REMARK VINA RESULT:    -6.177      0.412      1.268
REMARK INTER + INTRA:          -8.938
REMARK INTER:                  -7.851
REMARK INTRA:                  -1.088
REMARK UNBOUND:                -0.955
REMARK  5 active torsions:
REMARK  status: ('A' for Active; 'I' for Inactive)
REMARK    1  A    between atoms: N8_1  and  C24_2 
REMARK    2  A    between atoms: N8_1  and  C7_8 
REMARK    3  A    between atoms: C2_13  and  N1_14 
REMARK    4  A    between atoms: N1_14  and  C17_15 
REMARK    5  A    between atoms: C14_16  and  C13_19 
ROOT
ATOM      1  C17 FTA A   1       8.581  18.247  20.246  1.00  0.00     0.142 C 
ATOM      2  C14 FTA A   1       8.195  18.517  21.509  1.00  0.00     0.158 C 
ATOM      3  C18 FTA A   1       9.168  18.947  22.490  1.00  0.00     0.069 C 
ATOM      4  N21 FTA A   1      10.068  19.227  23.187  1.00  0.00    -0.197 NA
ENDROOT
BRANCH   2   5
ATOM      5  C13 FTA A   1       6.767  18.386  21.879  1.00  0.00     0.197 A 
ATOM      6  N15 FTA A   1       5.989  17.237  21.758  1.00  0.00    -0.093 NA
ATOM      7  N19 FTA A   1       4.702  17.559  22.171  1.00  0.00    -0.231 N 
ATOM      8  N20 FTA A   1       4.665  18.894  22.545  1.00  0.00    -0.017 NA
ATOM      9  H15 FTA A   1       3.903  16.909  22.196  1.00  0.00     0.200 HD
ATOM     10  N16 FTA A   1       5.947  19.406  22.375  1.00  0.00    -0.090 NA
ENDBRANCH   2   5
BRANCH   1  11
ATOM     11  N1  FTA A   1       8.249  17.059  19.704  1.00  0.00    -0.389 N 
ATOM     12  H11 FTA A   1       8.360  16.220  20.292  1.00  0.00     0.159 HD
BRANCH  11  13
ATOM     13  C2  FTA A   1       7.758  16.874  18.383  1.00  0.00     0.028 A 
ATOM     14  C4  FTA A   1       8.428  17.370  17.267  1.00  0.00     0.031 A 
ATOM     15  C6  FTA A   1       7.780  17.357  16.024  1.00  0.00     0.031 A 
ATOM     16  C7  FTA A   1       6.487  16.866  15.869  1.00  0.00     0.032 A 
ATOM     17  C5  FTA A   1       5.845  16.354  16.982  1.00  0.00     0.031 A 
ATOM     18  C3  FTA A   1       6.464  16.370  18.226  1.00  0.00     0.031 A 
BRANCH  16  19
ATOM     19  N8  FTA A   1       5.738  17.033  14.676  1.00  0.00    -0.356 N 
ATOM     20  H1  FTA A   1       5.442  17.990  14.434  1.00  0.00     0.166 HD
BRANCH  19  21
ATOM     21  C24 FTA A   1       5.362  15.985  13.782  1.00  0.00     0.032 A 
ATOM     22  C26 FTA A   1       4.105  15.927  13.228  1.00  0.00     0.029 A 
ATOM     23  C28 FTA A   1       3.748  14.800  12.512  1.00  0.00     0.002 A 
ATOM     24  C30 FTA A   1       4.620  13.743  12.307  1.00  0.00     0.000 A 
ATOM     25  C29 FTA A   1       5.887  13.806  12.821  1.00  0.00     0.002 A 
ATOM     26  C27 FTA A   1       6.250  14.944  13.550  1.00  0.00     0.029 A 
ENDBRANCH  19  21
ENDBRANCH  16  19
ENDBRANCH  11  13
ENDBRANCH   1  11
TORSDOF 5
ENDMDL
MODEL 3
REMARK VINA RESULT:    -6.015      7.310     11.057
REMARK INTER + INTRA:          -8.728
REMARK INTER:                  -7.770
REMARK INTRA:                  -0.958
REMARK UNBOUND:                -0.955
REMARK  5 active torsions:
REMARK  status: ('A' for Active; 'I' for Inactive)
REMARK    1  A    between atoms: N8_1  and  C24_2 
REMARK    2  A    between atoms: N8_1  and  C7_8 
REMARK    3  A    between atoms: C2_13  and  N1_14 
REMARK    4  A    between atoms: N1_14  and  C17_15 
REMARK    5  A    between atoms: C14_16  and  C13_19 
ROOT
ATOM      1  C17 FTA A   1      -3.587  15.920  14.128  1.00  0.00     0.142 C 
ATOM      2  C14 FTA A   1      -4.821  15.384  14.200  1.00  0.00     0.158 C 
ATOM      3  C18 FTA A   1      -5.882  16.091  14.884  1.00  0.00     0.069 C 
ATOM      4  N21 FTA A   1      -6.623  16.744  15.516  1.00  0.00    -0.197 NA
ENDROOT
BRANCH   2   5
ATOM      5  C13 FTA A   1      -5.086  14.076  13.559  1.00  0.00     0.197 A 
ATOM      6  N15 FTA A   1      -4.158  13.055  13.361  1.00  0.00    -0.093 NA
ATOM      7  N19 FTA A   1      -4.806  12.027  12.687  1.00  0.00    -0.231 N 
ATOM      8  N20 FTA A   1      -6.124  12.393  12.458  1.00  0.00    -0.017 NA
ATOM      9  H15 FTA A   1      -4.375  11.136  12.402  1.00  0.00     0.200 HD
ATOM     10  N16 FTA A   1      -6.303  13.658  13.007  1.00  0.00    -0.090 NA
ENDBRANCH   2   5
BRANCH   1  11
ATOM     11  N1  FTA A   1      -2.533  15.183  14.530  1.00  0.00    -0.389 N 
ATOM     12  H11 FTA A   1      -2.675  14.543  15.325  1.00  0.00     0.159 HD
BRANCH  11  13
ATOM     13  C2  FTA A   1      -1.240  15.221  13.940  1.00  0.00     0.028 A 
ATOM     14  C4  FTA A   1      -0.154  14.545  14.491  1.00  0.00     0.031 A 
ATOM     15  C6  FTA A   1       1.132  14.808  13.998  1.00  0.00     0.031 A 
ATOM     16  C7  FTA A   1       1.359  15.725  12.975  1.00  0.00     0.032 A 
ATOM     17  C5  FTA A   1       0.267  16.369  12.421  1.00  0.00     0.031 A 
ATOM     18  C3  FTA A   1      -1.014  16.133  12.905  1.00  0.00     0.031 A 
BRANCH  16  19
ATOM     19  N8  FTA A   1       2.657  16.160  12.606  1.00  0.00    -0.356 N 
ATOM     20  H1  FTA A   1       2.791  17.170  12.451  1.00  0.00     0.166 HD
BRANCH  19  21
ATOM     21  C24 FTA A   1       3.794  15.314  12.431  1.00  0.00     0.032 A 
ATOM     22  C26 FTA A   1       3.736  14.181  11.654  1.00  0.00     0.029 A 
ATOM     23  C28 FTA A   1       4.813  13.315  11.664  1.00  0.00     0.002 A 
ATOM     24  C30 FTA A   1       5.958  13.562  12.403  1.00  0.00     0.000 A 
ATOM     25  C29 FTA A   1       6.043  14.706  13.151  1.00  0.00     0.002 A 
ATOM     26  C27 FTA A   1       4.952  15.583  13.146  1.00  0.00     0.029 A 
ENDBRANCH  19  21
ENDBRANCH  16  19
ENDBRANCH  11  13
ENDBRANCH   1  11
TORSDOF 5
ENDMDL
MODEL 4
REMARK VINA RESULT:    -5.957      2.953      4.277
REMARK INTER + INTRA:          -8.653
REMARK INTER:                  -7.585
REMARK INTRA:                  -1.068
REMARK UNBOUND:                -0.955
REMARK  5 active torsions:
REMARK  status: ('A' for Active; 'I' for Inactive)
REMARK    1  A    between atoms: N8_1  and  C24_2 
REMARK    2  A    between atoms: N8_1  and  C7_8 
REMARK    3  A    between atoms: C2_13  and  N1_14 
REMARK    4  A    between atoms: N1_14  and  C17_15 
REMARK    5  A    between atoms: C14_16  and  C13_19 
ROOT
ATOM      1  C17 FTA A   1       5.983  19.011  18.421  1.00  0.00     0.142 C 
ATOM      2  C14 FTA A   1       6.501  18.092  19.260  1.00  0.00     0.158 C 
ATOM      3  C18 FTA A   1       7.506  17.162  18.790  1.00  0.00     0.069 C 
ATOM      4  N21 FTA A   1       8.263  16.442  18.259  1.00  0.00    -0.197 NA
ENDROOT
BRANCH   2   5
ATOM      5  C13 FTA A   1       6.046  18.053  20.669  1.00  0.00     0.197 A 
ATOM      6  N15 FTA A   1       4.919  17.391  21.151  1.00  0.00    -0.093 NA
ATOM      7  N19 FTA A   1       4.835  17.648  22.513  1.00  0.00    -0.231 N 
ATOM      8  N20 FTA A   1       5.892  18.464  22.889  1.00  0.00    -0.017 NA
ATOM      9  H15 FTA A   1       4.103  17.290  23.144  1.00  0.00     0.200 HD
ATOM     10  N16 FTA A   1       6.651  18.707  21.749  1.00  0.00    -0.090 NA
ENDBRANCH   2   5
BRANCH   1  11
ATOM     11  N1  FTA A   1       4.644  19.096  18.295  1.00  0.00    -0.389 N 
ATOM     12  H11 FTA A   1       4.147  19.742  18.925  1.00  0.00     0.159 HD
BRANCH  11  13
ATOM     13  C2  FTA A   1       3.865  18.362  17.360  1.00  0.00     0.028 A 
ATOM     14  C4  FTA A   1       3.378  17.087  17.639  1.00  0.00     0.031 A 
ATOM     15  C6  FTA A   1       2.820  16.330  16.600  1.00  0.00     0.031 A 
ATOM     16  C7  FTA A   1       2.738  16.810  15.296  1.00  0.00     0.032 A 
ATOM     17  C5  FTA A   1       3.203  18.088  15.040  1.00  0.00     0.031 A 
ATOM     18  C3  FTA A   1       3.773  18.849  16.053  1.00  0.00     0.031 A 
BRANCH  16  19
ATOM     19  N8  FTA A   1       2.374  15.992  14.196  1.00  0.00    -0.356 N 
ATOM     20  H1  FTA A   1       3.131  15.496  13.705  1.00  0.00     0.166 HD
BRANCH  19  21
ATOM     21  C24 FTA A   1       1.044  15.800  13.713  1.00  0.00     0.032 A 
ATOM     22  C26 FTA A   1       0.511  16.600  12.730  1.00  0.00     0.029 A 
ATOM     23  C28 FTA A   1      -0.832  16.475  12.430  1.00  0.00     0.002 A 
ATOM     24  C30 FTA A   1      -1.651  15.554  13.061  1.00  0.00     0.000 A 
ATOM     25  C29 FTA A   1      -1.124  14.725  14.015  1.00  0.00     0.002 A 
ATOM     26  C27 FTA A   1       0.235  14.852  14.324  1.00  0.00     0.029 A 
ENDBRANCH  19  21
ENDBRANCH  16  19
ENDBRANCH  11  13
ENDBRANCH   1  11
TORSDOF 5
ENDMDL
MODEL 5
REMARK VINA RESULT:    -5.937      2.923      5.514
REMARK INTER + INTRA:          -8.628
REMARK INTER:                  -7.598
REMARK INTRA:                  -1.030
REMARK UNBOUND:                -0.955
REMARK  5 active torsions:
REMARK  status: ('A' for Active; 'I' for Inactive)
REMARK    1  A    between atoms: N8_1  and  C24_2 
REMARK    2  A    between atoms: N8_1  and  C7_8 
REMARK    3  A    between atoms: C2_13  and  N1_14 
REMARK    4  A    between atoms: N1_14  and  C17_15 
REMARK    5  A    between atoms: C14_16  and  C13_19 
ROOT
ATOM      1  C17 FTA A   1       8.675  20.594  23.983  1.00  0.00     0.142 C 
ATOM      2  C14 FTA A   1       9.560  20.930  24.942  1.00  0.00     0.158 C 
ATOM      3  C18 FTA A   1       9.167  21.818  26.015  1.00  0.00     0.069 C 
ATOM      4  N21 FTA A   1       8.728  22.587  26.785  1.00  0.00    -0.197 NA
ENDROOT
BRANCH   2   5
ATOM      5  C13 FTA A   1      10.931  20.372  24.897  1.00  0.00     0.197 A 
ATOM      6  N15 FTA A   1      11.793  20.397  23.803  1.00  0.00    -0.093 NA
ATOM      7  N19 FTA A   1      12.953  19.728  24.170  1.00  0.00    -0.231 N 
ATOM      8  N20 FTA A   1      12.827  19.282  25.477  1.00  0.00    -0.017 NA
ATOM      9  H15 FTA A   1      13.776  19.585  23.567  1.00  0.00     0.200 HD
ATOM     10  N16 FTA A   1      11.578  19.690  25.934  1.00  0.00    -0.090 NA
ENDBRANCH   2   5
BRANCH   1  11
ATOM     11  N1  FTA A   1       9.016  20.769  22.692  1.00  0.00    -0.389 N 
ATOM     12  H11 FTA A   1       9.231  21.728  22.382  1.00  0.00     0.159 HD
BRANCH  11  13
ATOM     13  C2  FTA A   1       9.102  19.731  21.724  1.00  0.00     0.028 A 
ATOM     14  C4  FTA A   1       9.275  19.996  20.367  1.00  0.00     0.031 A 
ATOM     15  C6  FTA A   1       9.121  18.952  19.446  1.00  0.00     0.031 A 
ATOM     16  C7  FTA A   1       8.799  17.656  19.842  1.00  0.00     0.032 A 
ATOM     17  C5  FTA A   1       8.655  17.404  21.195  1.00  0.00     0.031 A 
ATOM     18  C3  FTA A   1       8.790  18.429  22.124  1.00  0.00     0.031 A 
BRANCH  16  19
ATOM     19  N8  FTA A   1       8.434  16.639  18.924  1.00  0.00    -0.356 N 
ATOM     20  H1  FTA A   1       8.965  15.756  18.962  1.00  0.00     0.166 HD
BRANCH  19  21
ATOM     21  C24 FTA A   1       7.393  16.736  17.952  1.00  0.00     0.032 A 
ATOM     22  C26 FTA A   1       6.082  16.476  18.273  1.00  0.00     0.029 A 
ATOM     23  C28 FTA A   1       5.150  16.419  17.254  1.00  0.00     0.002 A 
ATOM     24  C30 FTA A   1       5.482  16.645  15.929  1.00  0.00     0.000 A 
ATOM     25  C29 FTA A   1       6.778  16.943  15.601  1.00  0.00     0.002 A 
ATOM     26  C27 FTA A   1       7.725  16.998  16.631  1.00  0.00     0.029 A 
ENDBRANCH  19  21
ENDBRANCH  16  19
ENDBRANCH  11  13
ENDBRANCH   1  11
TORSDOF 5
ENDMDL
MODEL 6
REMARK VINA RESULT:    -5.881      2.733      3.890
REMARK INTER + INTRA:          -8.555
REMARK INTER:                  -7.655
REMARK INTRA:                  -0.901
REMARK UNBOUND:                -0.955
REMARK  5 active torsions:
REMARK  status: ('A' for Active; 'I' for Inactive)
REMARK    1  A    between atoms: N8_1  and  C24_2 
REMARK    2  A    between atoms: N8_1  and  C7_8 
REMARK    3  A    between atoms: C2_13  and  N1_14 
REMARK    4  A    between atoms: N1_14  and  C17_15 
REMARK    5  A    between atoms: C14_16  and  C13_19 
ROOT
ATOM      1  C17 FTA A   1       6.351  18.555  17.868  1.00  0.00     0.142 C 
ATOM      2  C14 FTA A   1       6.760  18.619  19.151  1.00  0.00     0.158 C 
ATOM      3  C18 FTA A   1       8.026  19.238  19.481  1.00  0.00     0.069 C 
ATOM      4  N21 FTA A   1       9.092  19.712  19.592  1.00  0.00    -0.197 NA
ENDROOT
BRANCH   2   5
ATOM      5  C13 FTA A   1       5.896  18.065  20.219  1.00  0.00     0.197 A 
ATOM      6  N15 FTA A   1       5.890  18.455  21.557  1.00  0.00    -0.093 NA
ATOM      7  N19 FTA A   1       4.970  17.656  22.221  1.00  0.00    -0.231 N 
ATOM      8  N20 FTA A   1       4.401  16.769  21.318  1.00  0.00    -0.017 NA
ATOM      9  H15 FTA A   1       4.744  17.712  23.225  1.00  0.00     0.200 HD
ATOM     10  N16 FTA A   1       4.967  17.029  20.073  1.00  0.00    -0.090 NA
ENDBRANCH   2   5
BRANCH   1  11
ATOM     11  N1  FTA A   1       5.989  17.362  17.359  1.00  0.00    -0.389 N 
ATOM     12  H11 FTA A   1       6.426  16.520  17.761  1.00  0.00     0.159 HD
BRANCH  11  13
ATOM     13  C2  FTA A   1       5.049  17.175  16.308  1.00  0.00     0.028 A 
ATOM     14  C4  FTA A   1       3.675  17.258  16.519  1.00  0.00     0.031 A 
ATOM     15  C6  FTA A   1       2.805  16.839  15.504  1.00  0.00     0.031 A 
ATOM     16  C7  FTA A   1       3.269  16.340  14.290  1.00  0.00     0.032 A 
ATOM     17  C5  FTA A   1       4.637  16.288  14.086  1.00  0.00     0.031 A 
ATOM     18  C3  FTA A   1       5.517  16.686  15.085  1.00  0.00     0.031 A 
BRANCH  16  19
ATOM     19  N8  FTA A   1       2.421  15.720  13.338  1.00  0.00    -0.356 N 
ATOM     20  H1  FTA A   1       2.872  15.231  12.551  1.00  0.00     0.166 HD
BRANCH  19  21
ATOM     21  C24 FTA A   1       0.994  15.717  13.380  1.00  0.00     0.032 A 
ATOM     22  C26 FTA A   1       0.299  14.831  14.169  1.00  0.00     0.029 A 
ATOM     23  C28 FTA A   1      -1.075  14.763  14.035  1.00  0.00     0.002 A 
ATOM     24  C30 FTA A   1      -1.778  15.574  13.160  1.00  0.00     0.000 A 
ATOM     25  C29 FTA A   1      -1.100  16.486  12.396  1.00  0.00     0.002 A 
ATOM     26  C27 FTA A   1       0.291  16.555  12.527  1.00  0.00     0.029 A 
ENDBRANCH  19  21
ENDBRANCH  16  19
ENDBRANCH  11  13
ENDBRANCH   1  11
TORSDOF 5
ENDMDL
MODEL 7
REMARK VINA RESULT:    -5.814      1.386      2.412
REMARK INTER + INTRA:          -8.468
REMARK INTER:                  -7.513
REMARK INTRA:                  -0.955
REMARK UNBOUND:                -0.955
REMARK  5 active torsions:
REMARK  status: ('A' for Active; 'I' for Inactive)
REMARK    1  A    between atoms: N8_1  and  C24_2 
REMARK    2  A    between atoms: N8_1  and  C7_8 
REMARK    3  A    between atoms: C2_13  and  N1_14 
REMARK    4  A    between atoms: N1_14  and  C17_15 
REMARK    5  A    between atoms: C14_16  and  C13_19 
ROOT
ATOM      1  C17 FTA A   1       6.544  17.714  20.220  1.00  0.00     0.142 C 
ATOM      2  C14 FTA A   1       6.689  18.763  21.053  1.00  0.00     0.158 C 
ATOM      3  C18 FTA A   1       5.713  19.832  21.053  1.00  0.00     0.069 C 
ATOM      4  N21 FTA A   1       4.883  20.646  20.903  1.00  0.00    -0.197 NA
ENDROOT
BRANCH   2   5
ATOM      5  C13 FTA A   1       7.844  18.805  21.978  1.00  0.00     0.197 A 
ATOM      6  N15 FTA A   1       8.842  17.839  22.092  1.00  0.00    -0.093 NA
ATOM      7  N19 FTA A   1       9.702  18.244  23.104  1.00  0.00    -0.231 N 
ATOM      8  N20 FTA A   1       9.255  19.448  23.627  1.00  0.00    -0.017 NA
ATOM      9  H15 FTA A   1      10.540  17.731  23.417  1.00  0.00     0.200 HD
ATOM     10  N16 FTA A   1       8.109  19.803  22.923  1.00  0.00    -0.090 NA
ENDBRANCH   2   5
BRANCH   1  11
ATOM     11  N1  FTA A   1       7.570  17.373  19.417  1.00  0.00    -0.389 N 
ATOM     12  H11 FTA A   1       8.513  17.355  19.831  1.00  0.00     0.159 HD
BRANCH  11  13
ATOM     13  C2  FTA A   1       7.451  17.038  18.041  1.00  0.00     0.028 A 
ATOM     14  C4  FTA A   1       8.271  17.602  17.067  1.00  0.00     0.031 A 
ATOM     15  C6  FTA A   1       7.954  17.409  15.715  1.00  0.00     0.031 A 
ATOM     16  C7  FTA A   1       6.843  16.671  15.314  1.00  0.00     0.032 A 
ATOM     17  C5  FTA A   1       6.053  16.096  16.293  1.00  0.00     0.031 A 
ATOM     18  C3  FTA A   1       6.343  16.288  17.639  1.00  0.00     0.031 A 
BRANCH  16  19
ATOM     19  N8  FTA A   1       6.386  16.637  13.972  1.00  0.00    -0.356 N 
ATOM     20  H1  FTA A   1       6.638  17.432  13.366  1.00  0.00     0.166 HD
BRANCH  19  21
ATOM     21  C24 FTA A   1       5.606  15.592  13.391  1.00  0.00     0.032 A 
ATOM     22  C26 FTA A   1       6.170  14.397  13.012  1.00  0.00     0.029 A 
ATOM     23  C28 FTA A   1       5.400  13.497  12.300  1.00  0.00     0.002 A 
ATOM     24  C30 FTA A   1       4.075  13.741  11.983  1.00  0.00     0.000 A 
ATOM     25  C29 FTA A   1       3.490  14.912  12.388  1.00  0.00     0.002 A 
ATOM     26  C27 FTA A   1       4.269  15.827  13.105  1.00  0.00     0.029 A 
ENDBRANCH  19  21
ENDBRANCH  16  19
ENDBRANCH  11  13
ENDBRANCH   1  11
TORSDOF 5
ENDMDL
MODEL 8
REMARK VINA RESULT:    -5.797      2.080      3.177
REMARK INTER + INTRA:          -8.447
REMARK INTER:                  -7.424
REMARK INTRA:                  -1.024
REMARK UNBOUND:                -0.955
REMARK  5 active torsions:
REMARK  status: ('A' for Active; 'I' for Inactive)
REMARK    1  A    between atoms: N8_1  and  C24_2 
REMARK    2  A    between atoms: N8_1  and  C7_8 
REMARK    3  A    between atoms: C2_13  and  N1_14 
REMARK    4  A    between atoms: N1_14  and  C17_15 
REMARK    5  A    between atoms: C14_16  and  C13_19 
ROOT
ATOM      1  C17 FTA A   1       5.822  19.139  18.729  1.00  0.00     0.142 C 
ATOM      2  C14 FTA A   1       6.441  18.553  19.774  1.00  0.00     0.158 C 
ATOM      3  C18 FTA A   1       7.668  17.814  19.571  1.00  0.00     0.069 C 
ATOM      4  N21 FTA A   1       8.616  17.203  19.250  1.00  0.00    -0.197 NA
ENDROOT
BRANCH   2   5
ATOM      5  C13 FTA A   1       5.862  18.686  21.131  1.00  0.00     0.197 A 
ATOM      6  N15 FTA A   1       5.991  17.770  22.173  1.00  0.00    -0.093 NA
ATOM      7  N19 FTA A   1       5.261  18.256  23.249  1.00  0.00    -0.231 N 
ATOM      8  N20 FTA A   1       4.675  19.462  22.894  1.00  0.00    -0.017 NA
ATOM      9  H15 FTA A   1       5.168  17.795  24.166  1.00  0.00     0.200 HD
ATOM     10  N16 FTA A   1       5.056  19.736  21.584  1.00  0.00    -0.090 NA
ENDBRANCH   2   5
BRANCH   1  11
ATOM     11  N1  FTA A   1       4.518  18.878  18.515  1.00  0.00    -0.389 N 
ATOM     12  H11 FTA A   1       3.866  19.038  19.297  1.00  0.00     0.159 HD
BRANCH  11  13
ATOM     13  C2  FTA A   1       3.973  18.401  17.292  1.00  0.00     0.028 A 
ATOM     14  C4  FTA A   1       3.277  17.197  17.211  1.00  0.00     0.031 A 
ATOM     15  C6  FTA A   1       2.969  16.674  15.948  1.00  0.00     0.031 A 
ATOM     16  C7  FTA A   1       3.338  17.317  14.770  1.00  0.00     0.032 A 
ATOM     17  C5  FTA A   1       4.007  18.525  14.867  1.00  0.00     0.031 A 
ATOM     18  C3  FTA A   1       4.334  19.054  16.110  1.00  0.00     0.031 A 
BRANCH  16  19
ATOM     19  N8  FTA A   1       3.225  16.710  13.493  1.00  0.00    -0.356 N 
ATOM     20  H1  FTA A   1       2.492  17.068  12.863  1.00  0.00     0.166 HD
BRANCH  19  21
ATOM     21  C24 FTA A   1       4.042  15.645  13.009  1.00  0.00     0.032 A 
ATOM     22  C26 FTA A   1       3.531  14.651  12.207  1.00  0.00     0.029 A 
ATOM     23  C28 FTA A   1       4.328  13.561  11.915  1.00  0.00     0.002 A 
ATOM     24  C30 FTA A   1       5.629  13.447  12.373  1.00  0.00     0.000 A 
ATOM     25  C29 FTA A   1       6.163  14.448  13.141  1.00  0.00     0.002 A 
ATOM     26  C27 FTA A   1       5.357  15.553  13.441  1.00  0.00     0.029 A 
ENDBRANCH  19  21
ENDBRANCH  16  19
ENDBRANCH  11  13
ENDBRANCH   1  11
TORSDOF 5
ENDMDL
MODEL 9
REMARK VINA RESULT:    -5.710      2.524      8.851
REMARK INTER + INTRA:          -8.334
REMARK INTER:                  -7.165
REMARK INTRA:                  -1.169
REMARK UNBOUND:                -0.955
REMARK  5 active torsions:
REMARK  status: ('A' for Active; 'I' for Inactive)
REMARK    1  A    between atoms: N8_1  and  C24_2 
REMARK    2  A    between atoms: N8_1  and  C7_8 
REMARK    3  A    between atoms: C2_13  and  N1_14 
REMARK    4  A    between atoms: N1_14  and  C17_15 
REMARK    5  A    between atoms: C14_16  and  C13_19 
ROOT
ATOM      1  C17 FTA A   1       4.252  16.756  13.397  1.00  0.00     0.142 C 
ATOM      2  C14 FTA A   1       3.775  15.550  13.031  1.00  0.00     0.158 C 
ATOM      3  C18 FTA A   1       2.353  15.283  13.084  1.00  0.00     0.069 C 
ATOM      4  N21 FTA A   1       1.194  15.192  13.231  1.00  0.00    -0.197 NA
ENDROOT
BRANCH   2   5
ATOM      5  C13 FTA A   1       4.715  14.506  12.562  1.00  0.00     0.197 A 
ATOM      6  N15 FTA A   1       5.910  14.139  13.178  1.00  0.00    -0.093 NA
ATOM      7  N19 FTA A   1       6.503  13.162  12.390  1.00  0.00    -0.231 N 
ATOM      8  N20 FTA A   1       5.697  12.914  11.289  1.00  0.00    -0.017 NA
ATOM      9  H15 FTA A   1       7.399  12.694  12.591  1.00  0.00     0.200 HD
ATOM     10  N16 FTA A   1       4.582  13.739  11.399  1.00  0.00    -0.090 NA
ENDBRANCH   2   5
BRANCH   1  11
ATOM     11  N1  FTA A   1       5.234  16.817  14.316  1.00  0.00    -0.389 N 
ATOM     12  H11 FTA A   1       6.195  16.964  13.977  1.00  0.00     0.159 HD
BRANCH  11  13
ATOM     13  C2  FTA A   1       5.044  16.695  15.720  1.00  0.00     0.028 A 
ATOM     14  C4  FTA A   1       3.875  17.113  16.349  1.00  0.00     0.031 A 
ATOM     15  C6  FTA A   1       3.842  17.179  17.749  1.00  0.00     0.031 A 
ATOM     16  C7  FTA A   1       4.943  16.841  18.532  1.00  0.00     0.032 A 
ATOM     17  C5  FTA A   1       6.089  16.404  17.892  1.00  0.00     0.031 A 
ATOM     18  C3  FTA A   1       6.146  16.344  16.505  1.00  0.00     0.031 A 
BRANCH  16  19
ATOM     19  N8  FTA A   1       5.004  17.098  19.926  1.00  0.00    -0.356 N 
ATOM     20  H1  FTA A   1       4.421  16.511  20.540  1.00  0.00     0.166 HD
BRANCH  19  21
ATOM     21  C24 FTA A   1       5.807  18.101  20.547  1.00  0.00     0.032 A 
ATOM     22  C26 FTA A   1       5.839  19.392  20.076  1.00  0.00     0.029 A 
ATOM     23  C28 FTA A   1       6.763  20.270  20.611  1.00  0.00     0.002 A 
ATOM     24  C30 FTA A   1       7.633  19.905  21.624  1.00  0.00     0.000 A 
ATOM     25  C29 FTA A   1       7.585  18.633  22.128  1.00  0.00     0.002 A 
ATOM     26  C27 FTA A   1       6.653  17.741  21.586  1.00  0.00     0.029 A 
ENDBRANCH  19  21
ENDBRANCH  16  19
ENDBRANCH  11  13
ENDBRANCH   1  11
TORSDOF 5
ENDMDL
