MODEL 1
REMARK VINA RESULT:    -7.729      0.000      0.000
REMARK INTER + INTRA:         -11.643
REMARK INTER:                 -10.458
REMARK INTRA:                  -1.185
REMARK UNBOUND:                -1.203
REMARK  7 active torsions:
REMARK  status: ('A' for Active; 'I' for Inactive)
REMARK    1  A    between atoms: O_2  and  C_3 
REMARK    2  A    between atoms: C_6  and  C_7 
REMARK    3  A    between atoms: C_9  and  N_10 
REMARK    4  A    between atoms: C_11  and  C_12 
REMARK       I    between atoms: C_12  and  N_14 
REMARK    5  A    between atoms: N_14  and  C_15 
REMARK    6  A    between atoms: C_25  and  N_26 
REMARK    7  A    between atoms: C_31  and  O_32 
ROOT
HETATM    1  C   UNL     1       7.431  13.261  23.306  0.00  0.00     0.013 C 
HETATM    2  C   UNL     1       6.942  12.171  22.493  0.00  0.00     0.035 C 
HETATM    3  C   UNL     1       7.168  11.673  21.134  0.00  0.00     0.043 C 
HETATM    4  C   UNL     1       6.192  10.785  20.708  0.00  0.00     0.097 C 
HETATM    5  S   UNL     1       5.237  10.268  22.031  0.00  0.00    -0.062 SA
HETATM    6  C   UNL     1       6.002  11.340  23.099  0.00  0.00     0.113 C 
HETATM    7  N   UNL     1       5.617  11.333  24.387  0.00  0.00    -0.227 NA
HETATM    8  C   UNL     1       6.124  12.304  25.149  0.00  0.00     0.123 C 
HETATM    9  C   UNL     1       6.947  13.312  24.655  0.00  0.00     0.096 C 
HETATM   10  C   UNL     1       7.249  14.393  25.554  0.00  0.00     0.103 C 
HETATM   11  N   UNL     1       7.538  15.231  26.312  0.00  0.00    -0.191 NA
ENDROOT
BRANCH   1  12
HETATM   12  C   UNL     1       8.324  14.316  22.743  0.00  0.00    -0.021 C 
HETATM   13  C   UNL     1       7.816  15.521  22.249  0.00  0.00     0.015 C 
HETATM   14  C   UNL     1       8.629  16.459  21.613  0.00  0.00     0.040 C 
HETATM   15  C   UNL     1      10.020  16.338  21.625  0.00  0.00     0.101 C 
HETATM   16  C   UNL     1      10.579  15.188  22.186  0.00  0.00     0.102 C 
HETATM   17  C   UNL     1       9.715  14.158  22.624  0.00  0.00     0.052 C 
BRANCH  15  18
HETATM   18  O   UNL     1      10.822  17.291  21.062  0.00  0.00    -0.353 OA
HETATM   19  C   UNL     1      10.150  18.397  20.459  0.00  0.00     0.210 C 
ENDBRANCH  15  18
BRANCH  16  20
HETATM   20  O   UNL     1      11.892  14.869  22.394  0.00  0.00    -0.353 OA
HETATM   21  C   UNL     1      12.542  15.121  23.631  0.00  0.00     0.210 C 
ENDBRANCH  16  20
ENDBRANCH   1  12
BRANCH   8  22
HETATM   22  N   UNL     1       5.689  12.278  26.476  0.00  0.00    -0.286 NA
HETATM   23  H   UNL     1       5.290  13.186  26.705  0.00  0.00     0.125 HD
HETATM   24  H   UNL     1       5.050  11.518  26.690  0.00  0.00     0.125 HD
ENDBRANCH   8  22
BRANCH   3  25
HETATM   25  N   UNL     1       8.183  12.064  20.309  0.00  0.00    -0.301 NA
HETATM   26  H   UNL     1       8.905  12.669  20.709  0.00  0.00     0.124 HD
HETATM   27  H   UNL     1       7.906  12.487  19.419  0.00  0.00     0.124 HD
ENDBRANCH   3  25
BRANCH   4  28
HETATM   28  C   UNL     1       5.881  10.221  19.391  0.00  0.00     0.265 C 
HETATM   29  O   UNL     1       6.431  10.621  18.370  0.00  0.00    -0.267 OA
HETATM   30  N   UNL     1       4.936   9.205  19.409  0.00  0.00    -0.322 N 
HETATM   31  H   UNL     1       4.513   9.025  20.313  0.00  0.00     0.169 HD
BRANCH  30  32
HETATM   32  C   UNL     1       4.480   8.430  18.313  0.00  0.00     0.035 A 
HETATM   33  C   UNL     1       3.608   8.905  17.326  0.00  0.00     0.032 A 
HETATM   34  C   UNL     1       3.207   8.080  16.268  0.00  0.00     0.044 A 
HETATM   35  C   UNL     1       3.674   6.780  16.195  0.00  0.00     0.116 A 
HETATM   36  F   UNL     1       3.290   5.992  15.181  0.00  0.00    -0.206 F 
HETATM   37  C   UNL     1       4.542   6.283  17.161  0.00  0.00     0.044 A 
HETATM   38  C   UNL     1       4.945   7.109  18.217  0.00  0.00     0.032 A 
ENDBRANCH  30  32
ENDBRANCH   4  28
TORSDOF 7
ENDMDL
MODEL 2
REMARK VINA RESULT:    -7.638      4.906      7.779
REMARK INTER + INTRA:         -11.521
REMARK INTER:                 -10.449
REMARK INTRA:                  -1.071
REMARK UNBOUND:                -1.203
REMARK  7 active torsions:
REMARK  status: ('A' for Active; 'I' for Inactive)
REMARK    1  A    between atoms: O_2  and  C_3 
REMARK    2  A    between atoms: C_6  and  C_7 
REMARK    3  A    between atoms: C_9  and  N_10 
REMARK    4  A    between atoms: C_11  and  C_12 
REMARK       I    between atoms: C_12  and  N_14 
REMARK    5  A    between atoms: N_14  and  C_15 
REMARK    6  A    between atoms: C_25  and  N_26 
REMARK    7  A    between atoms: C_31  and  O_32 
ROOT
HETATM    1  C   UNL     1       6.294  12.585  21.458  0.00  0.00     0.013 C 
HETATM    2  C   UNL     1       5.245  13.040  22.341  0.00  0.00     0.035 C 
HETATM    3  C   UNL     1       3.927  12.559  22.764  0.00  0.00     0.043 C 
HETATM    4  C   UNL     1       3.158  13.539  23.374  0.00  0.00     0.097 C 
HETATM    5  S   UNL     1       4.124  14.895  23.771  0.00  0.00    -0.062 SA
HETATM    6  C   UNL     1       5.483  14.251  22.988  0.00  0.00     0.113 C 
HETATM    7  N   UNL     1       6.624  14.961  23.015  0.00  0.00    -0.227 NA
HETATM    8  C   UNL     1       7.613  14.499  22.246  0.00  0.00     0.123 C 
HETATM    9  C   UNL     1       7.478  13.394  21.410  0.00  0.00     0.096 C 
HETATM   10  C   UNL     1       8.562  13.140  20.501  0.00  0.00     0.103 C 
HETATM   11  N   UNL     1       9.475  12.908  19.814  0.00  0.00    -0.191 NA
ENDROOT
BRANCH   1  12
HETATM   12  C   UNL     1       6.116  11.387  20.586  0.00  0.00    -0.021 C 
HETATM   13  C   UNL     1       6.439  10.102  21.031  0.00  0.00     0.015 C 
HETATM   14  C   UNL     1       6.389   8.994  20.185  0.00  0.00     0.040 C 
HETATM   15  C   UNL     1       5.814   9.079  18.915  0.00  0.00     0.101 C 
HETATM   16  C   UNL     1       5.398  10.331  18.460  0.00  0.00     0.102 C 
HETATM   17  C   UNL     1       5.665  11.466  19.258  0.00  0.00     0.052 C 
BRANCH  15  18
HETATM   18  O   UNL     1       5.702   7.979  18.110  0.00  0.00    -0.353 OA
HETATM   19  C   UNL     1       4.499   7.223  18.247  0.00  0.00     0.210 C 
ENDBRANCH  15  18
BRANCH  16  20
HETATM   20  O   UNL     1       4.741  10.666  17.309  0.00  0.00    -0.353 OA
HETATM   21  C   UNL     1       3.585  11.492  17.313  0.00  0.00     0.210 C 
ENDBRANCH  16  20
ENDBRANCH   1  12
BRANCH   8  22
HETATM   22  N   UNL     1       8.776  15.269  22.283  0.00  0.00    -0.286 NA
HETATM   23  H   UNL     1       8.520  16.237  22.470  0.00  0.00     0.125 HD
HETATM   24  H   UNL     1       9.480  14.931  22.934  0.00  0.00     0.125 HD
ENDBRANCH   8  22
BRANCH   3  25
HETATM   25  N   UNL     1       3.437  11.305  22.543  0.00  0.00    -0.301 NA
HETATM   26  H   UNL     1       4.050  10.641  22.063  0.00  0.00     0.124 HD
HETATM   27  H   UNL     1       2.525  11.250  22.080  0.00  0.00     0.124 HD
ENDBRANCH   3  25
BRANCH   4  28
HETATM   28  C   UNL     1       1.741  13.589  23.745  0.00  0.00     0.265 C 
HETATM   29  O   UNL     1       1.231  14.603  24.212  0.00  0.00    -0.267 OA
HETATM   30  N   UNL     1       1.043  12.413  23.512  0.00  0.00    -0.322 N 
HETATM   31  H   UNL     1       1.606  11.634  23.188  0.00  0.00     0.169 HD
BRANCH  30  32
HETATM   32  C   UNL     1      -0.341  12.176  23.707  0.00  0.00     0.035 A 
HETATM   33  C   UNL     1      -1.357  12.886  23.056  0.00  0.00     0.032 A 
HETATM   34  C   UNL     1      -2.704  12.590  23.297  0.00  0.00     0.044 A 
HETATM   35  C   UNL     1      -3.039  11.586  24.188  0.00  0.00     0.116 A 
HETATM   36  F   UNL     1      -4.329  11.304  24.417  0.00  0.00    -0.206 F 
HETATM   37  C   UNL     1      -2.050  10.865  24.847  0.00  0.00     0.044 A 
HETATM   38  C   UNL     1      -0.703  11.159  24.604  0.00  0.00     0.032 A 
ENDBRANCH  30  32
ENDBRANCH   4  28
TORSDOF 7
ENDMDL
MODEL 3
REMARK VINA RESULT:    -7.356      4.708      7.174
REMARK INTER + INTRA:         -11.139
REMARK INTER:                 -10.028
REMARK INTRA:                  -1.112
REMARK UNBOUND:                -1.203
REMARK  7 active torsions:
REMARK  status: ('A' for Active; 'I' for Inactive)
REMARK    1  A    between atoms: O_2  and  C_3 
REMARK    2  A    between atoms: C_6  and  C_7 
REMARK    3  A    between atoms: C_9  and  N_10 
REMARK    4  A    between atoms: C_11  and  C_12 
REMARK       I    between atoms: C_12  and  N_14 
REMARK    5  A    between atoms: N_14  and  C_15 
REMARK    6  A    between atoms: C_25  and  N_26 
REMARK    7  A    between atoms: C_31  and  O_32 
ROOT
HETATM    1  C   UNL     1       7.921  12.730  23.145  0.00  0.00     0.013 C 
HETATM    2  C   UNL     1       6.696  13.438  23.442  0.00  0.00     0.035 C 
HETATM    3  C   UNL     1       5.327  13.083  23.825  0.00  0.00     0.043 C 
HETATM    4  C   UNL     1       4.426  14.124  23.660  0.00  0.00     0.097 C 
HETATM    5  S   UNL     1       5.258  15.600  23.412  0.00  0.00    -0.062 SA
HETATM    6  C   UNL     1       6.766  14.827  23.354  0.00  0.00     0.113 C 
HETATM    7  N   UNL     1       7.860  15.588  23.185  0.00  0.00    -0.227 NA
HETATM    8  C   UNL     1       9.000  14.927  22.976  0.00  0.00     0.123 C 
HETATM    9  C   UNL     1       9.071  13.540  22.869  0.00  0.00     0.096 C 
HETATM   10  C   UNL     1      10.331  12.992  22.447  0.00  0.00     0.103 C 
HETATM   11  N   UNL     1      11.376  12.556  22.166  0.00  0.00    -0.191 NA
ENDROOT
BRANCH   1  12
HETATM   12  C   UNL     1       7.958  11.240  23.052  0.00  0.00    -0.021 C 
HETATM   13  C   UNL     1       8.646  10.464  23.990  0.00  0.00     0.015 C 
HETATM   14  C   UNL     1       8.786   9.084  23.843  0.00  0.00     0.040 C 
HETATM   15  C   UNL     1       8.070   8.383  22.870  0.00  0.00     0.101 C 
HETATM   16  C   UNL     1       7.300   9.112  21.963  0.00  0.00     0.102 C 
HETATM   17  C   UNL     1       7.356  10.523  22.005  0.00  0.00     0.052 C 
BRANCH  15  18
HETATM   18  O   UNL     1       8.154   7.022  22.770  0.00  0.00    -0.353 OA
HETATM   19  C   UNL     1       8.516   6.327  23.962  0.00  0.00     0.210 C 
ENDBRANCH  15  18
BRANCH  16  20
HETATM   20  O   UNL     1       6.455   8.669  20.984  0.00  0.00    -0.353 OA
HETATM   21  C   UNL     1       5.069   8.978  20.987  0.00  0.00     0.210 C 
ENDBRANCH  16  20
ENDBRANCH   1  12
BRANCH   8  22
HETATM   22  N   UNL     1      10.114  15.747  22.786  0.00  0.00    -0.286 NA
HETATM   23  H   UNL     1      10.431  16.081  23.694  0.00  0.00     0.125 HD
HETATM   24  H   UNL     1      10.866  15.314  22.257  0.00  0.00     0.125 HD
ENDBRANCH   8  22
BRANCH   3  25
HETATM   25  N   UNL     1       4.920  11.849  24.242  0.00  0.00    -0.301 NA
HETATM   26  H   UNL     1       5.339  11.483  25.101  0.00  0.00     0.124 HD
HETATM   27  H   UNL     1       4.968  11.097  23.549  0.00  0.00     0.124 HD
ENDBRANCH   3  25
BRANCH   4  28
HETATM   28  C   UNL     1       2.961  14.173  23.693  0.00  0.00     0.265 C 
HETATM   29  O   UNL     1       2.358  14.950  24.426  0.00  0.00    -0.267 OA
HETATM   30  N   UNL     1       2.336  13.286  22.828  0.00  0.00    -0.322 N 
HETATM   31  H   UNL     1       2.957  12.655  22.334  0.00  0.00     0.169 HD
BRANCH  30  32
HETATM   32  C   UNL     1       0.945  13.146  22.592  0.00  0.00     0.035 A 
HETATM   33  C   UNL     1       0.011  12.821  23.582  0.00  0.00     0.032 A 
HETATM   34  C   UNL     1      -1.350  12.706  23.273  0.00  0.00     0.044 A 
HETATM   35  C   UNL     1      -1.779  12.915  21.974  0.00  0.00     0.116 A 
HETATM   36  F   UNL     1      -3.082  12.806  21.679  0.00  0.00    -0.206 F 
HETATM   37  C   UNL     1      -0.873  13.241  20.972  0.00  0.00     0.044 A 
HETATM   38  C   UNL     1       0.487  13.358  21.282  0.00  0.00     0.032 A 
ENDBRANCH  30  32
ENDBRANCH   4  28
TORSDOF 7
ENDMDL
MODEL 4
REMARK VINA RESULT:    -7.127      3.433      5.578
REMARK INTER + INTRA:         -10.829
REMARK INTER:                 -10.020
REMARK INTRA:                  -0.809
REMARK UNBOUND:                -1.203
REMARK  7 active torsions:
REMARK  status: ('A' for Active; 'I' for Inactive)
REMARK    1  A    between atoms: O_2  and  C_3 
REMARK    2  A    between atoms: C_6  and  C_7 
REMARK    3  A    between atoms: C_9  and  N_10 
REMARK    4  A    between atoms: C_11  and  C_12 
REMARK       I    between atoms: C_12  and  N_14 
REMARK    5  A    between atoms: N_14  and  C_15 
REMARK    6  A    between atoms: C_25  and  N_26 
REMARK    7  A    between atoms: C_31  and  O_32 
ROOT
HETATM    1  C   UNL     1       5.355  13.547  22.423  0.00  0.00     0.013 C 
HETATM    2  C   UNL     1       5.752  12.734  21.296  0.00  0.00     0.035 C 
HETATM    3  C   UNL     1       5.081  11.896  20.299  0.00  0.00     0.043 C 
HETATM    4  C   UNL     1       5.946  11.045  19.628  0.00  0.00     0.097 C 
HETATM    5  S   UNL     1       7.572  11.500  19.914  0.00  0.00    -0.062 SA
HETATM    6  C   UNL     1       7.121  12.686  21.039  0.00  0.00     0.113 C 
HETATM    7  N   UNL     1       8.092  13.422  21.606  0.00  0.00    -0.227 NA
HETATM    8  C   UNL     1       7.707  14.221  22.603  0.00  0.00     0.123 C 
HETATM    9  C   UNL     1       6.404  14.260  23.091  0.00  0.00     0.096 C 
HETATM   10  C   UNL     1       6.190  15.020  24.293  0.00  0.00     0.103 C 
HETATM   11  N   UNL     1       6.018  15.691  25.231  0.00  0.00    -0.191 NA
ENDROOT
BRANCH   1  12
HETATM   12  C   UNL     1       3.943  13.573  22.907  0.00  0.00    -0.021 C 
HETATM   13  C   UNL     1       3.196  14.754  22.926  0.00  0.00     0.015 C 
HETATM   14  C   UNL     1       1.920  14.810  23.488  0.00  0.00     0.040 C 
HETATM   15  C   UNL     1       1.244  13.649  23.867  0.00  0.00     0.101 C 
HETATM   16  C   UNL     1       1.923  12.432  23.784  0.00  0.00     0.102 C 
HETATM   17  C   UNL     1       3.288  12.440  23.418  0.00  0.00     0.052 C 
BRANCH  15  18
HETATM   18  O   UNL     1      -0.033  13.696  24.354  0.00  0.00    -0.353 OA
HETATM   19  C   UNL     1      -1.017  12.987  23.602  0.00  0.00     0.210 C 
ENDBRANCH  15  18
BRANCH  16  20
HETATM   20  O   UNL     1       1.468  11.163  24.011  0.00  0.00    -0.353 OA
HETATM   21  C   UNL     1       2.342  10.101  24.366  0.00  0.00     0.210 C 
ENDBRANCH  16  20
ENDBRANCH   1  12
BRANCH   8  22
HETATM   22  N   UNL     1       8.743  14.957  23.181  0.00  0.00    -0.286 NA
HETATM   23  H   UNL     1       8.549  15.948  23.052  0.00  0.00     0.125 HD
HETATM   24  H   UNL     1       8.923  14.730  24.155  0.00  0.00     0.125 HD
ENDBRANCH   8  22
BRANCH   3  25
HETATM   25  N   UNL     1       3.736  11.872  20.065  0.00  0.00    -0.301 NA
HETATM   26  H   UNL     1       3.416  12.176  19.141  0.00  0.00     0.124 HD
HETATM   27  H   UNL     1       3.148  12.352  20.752  0.00  0.00     0.124 HD
ENDBRANCH   3  25
BRANCH   4  28
HETATM   28  C   UNL     1       5.712   9.904  18.738  0.00  0.00     0.265 C 
HETATM   29  O   UNL     1       6.602   9.445  18.029  0.00  0.00    -0.267 OA
HETATM   30  N   UNL     1       4.422   9.396  18.781  0.00  0.00    -0.322 N 
HETATM   31  H   UNL     1       3.772   9.917  19.359  0.00  0.00     0.169 HD
BRANCH  30  32
HETATM   32  C   UNL     1       3.915   8.268  18.088  0.00  0.00     0.035 A 
HETATM   33  C   UNL     1       4.040   6.949  18.540  0.00  0.00     0.032 A 
HETATM   34  C   UNL     1       3.506   5.886  17.802  0.00  0.00     0.044 A 
HETATM   35  C   UNL     1       2.847   6.137  16.612  0.00  0.00     0.116 A 
HETATM   36  F   UNL     1       2.336   5.119  15.907  0.00  0.00    -0.206 F 
HETATM   37  C   UNL     1       2.707   7.438  16.141  0.00  0.00     0.044 A 
HETATM   38  C   UNL     1       3.239   8.501  16.880  0.00  0.00     0.032 A 
ENDBRANCH  30  32
ENDBRANCH   4  28
TORSDOF 7
ENDMDL
MODEL 5
REMARK VINA RESULT:    -7.067      4.714      6.409
REMARK INTER + INTRA:         -10.749
REMARK INTER:                  -9.555
REMARK INTRA:                  -1.194
REMARK UNBOUND:                -1.203
REMARK  7 active torsions:
REMARK  status: ('A' for Active; 'I' for Inactive)
REMARK    1  A    between atoms: O_2  and  C_3 
REMARK    2  A    between atoms: C_6  and  C_7 
REMARK    3  A    between atoms: C_9  and  N_10 
REMARK    4  A    between atoms: C_11  and  C_12 
REMARK       I    between atoms: C_12  and  N_14 
REMARK    5  A    between atoms: N_14  and  C_15 
REMARK    6  A    between atoms: C_25  and  N_26 
REMARK    7  A    between atoms: C_31  and  O_32 
ROOT
HETATM    1  C   UNL     1       7.044  12.029  22.360  0.00  0.00     0.013 C 
HETATM    2  C   UNL     1       5.931  11.231  22.819  0.00  0.00     0.035 C 
HETATM    3  C   UNL     1       5.164  11.086  24.060  0.00  0.00     0.043 C 
HETATM    4  C   UNL     1       4.402   9.929  24.100  0.00  0.00     0.097 C 
HETATM    5  S   UNL     1       4.309   9.222  22.544  0.00  0.00    -0.062 SA
HETATM    6  C   UNL     1       5.402  10.340  21.888  0.00  0.00     0.113 C 
HETATM    7  N   UNL     1       5.693  10.245  20.579  0.00  0.00    -0.227 NA
HETATM    8  C   UNL     1       6.680  11.033  20.147  0.00  0.00     0.123 C 
HETATM    9  C   UNL     1       7.422  11.860  20.987  0.00  0.00     0.096 C 
HETATM   10  C   UNL     1       8.575  12.495  20.409  0.00  0.00     0.103 C 
HETATM   11  N   UNL     1       9.470  13.053  19.913  0.00  0.00    -0.191 NA
ENDROOT
BRANCH   1  12
HETATM   12  C   UNL     1       7.806  12.915  23.290  0.00  0.00    -0.021 C 
HETATM   13  C   UNL     1       7.516  14.277  23.406  0.00  0.00     0.015 C 
HETATM   14  C   UNL     1       8.300  15.133  24.180  0.00  0.00     0.040 C 
HETATM   15  C   UNL     1       9.280  14.637  25.043  0.00  0.00     0.101 C 
HETATM   16  C   UNL     1       9.545  13.267  25.023  0.00  0.00     0.102 C 
HETATM   17  C   UNL     1       8.884  12.461  24.067  0.00  0.00     0.052 C 
BRANCH  15  18
HETATM   18  O   UNL     1      10.001  15.469  25.853  0.00  0.00    -0.353 OA
HETATM   19  C   UNL     1      11.150  16.076  25.263  0.00  0.00     0.210 C 
ENDBRANCH  15  18
BRANCH  16  20
HETATM   20  O   UNL     1      10.382  12.529  25.813  0.00  0.00    -0.353 OA
HETATM   21  C   UNL     1      11.784  12.488  25.592  0.00  0.00     0.210 C 
ENDBRANCH  16  20
ENDBRANCH   1  12
BRANCH   8  22
HETATM   22  N   UNL     1       6.970  10.897  18.788  0.00  0.00    -0.286 NA
HETATM   23  H   UNL     1       6.925  11.816  18.353  0.00  0.00     0.125 HD
HETATM   24  H   UNL     1       7.851  10.429  18.594  0.00  0.00     0.125 HD
ENDBRANCH   8  22
BRANCH   3  25
HETATM   25  N   UNL     1       5.215  11.942  25.122  0.00  0.00    -0.301 NA
HETATM   26  H   UNL     1       6.006  12.590  25.164  0.00  0.00     0.124 HD
HETATM   27  H   UNL     1       5.135  11.518  26.050  0.00  0.00     0.124 HD
ENDBRANCH   3  25
BRANCH   4  28
HETATM   28  C   UNL     1       3.675   9.265  25.187  0.00  0.00     0.265 C 
HETATM   29  O   UNL     1       4.101   9.256  26.337  0.00  0.00    -0.267 OA
HETATM   30  N   UNL     1       2.480   8.673  24.802  0.00  0.00    -0.322 N 
HETATM   31  H   UNL     1       2.287   8.698  23.807  0.00  0.00     0.169 HD
BRANCH  30  32
HETATM   32  C   UNL     1       1.535   8.018  25.631  0.00  0.00     0.035 A 
HETATM   33  C   UNL     1       1.819   6.881  26.396  0.00  0.00     0.032 A 
HETATM   34  C   UNL     1       0.833   6.293  27.197  0.00  0.00     0.044 A 
HETATM   35  C   UNL     1      -0.438   6.839  27.235  0.00  0.00     0.116 A 
HETATM   36  F   UNL     1      -1.381   6.275  28.003  0.00  0.00    -0.206 F 
HETATM   37  C   UNL     1      -0.746   7.969  26.486  0.00  0.00     0.044 A 
HETATM   38  C   UNL     1       0.241   8.558  25.687  0.00  0.00     0.032 A 
ENDBRANCH  30  32
ENDBRANCH   4  28
TORSDOF 7
ENDMDL
MODEL 6
REMARK VINA RESULT:    -6.959      4.179      9.420
REMARK INTER + INTRA:         -10.603
REMARK INTER:                  -9.346
REMARK INTRA:                  -1.257
REMARK UNBOUND:                -1.203
REMARK  7 active torsions:
REMARK  status: ('A' for Active; 'I' for Inactive)
REMARK    1  A    between atoms: O_2  and  C_3 
REMARK    2  A    between atoms: C_6  and  C_7 
REMARK    3  A    between atoms: C_9  and  N_10 
REMARK    4  A    between atoms: C_11  and  C_12 
REMARK       I    between atoms: C_12  and  N_14 
REMARK    5  A    between atoms: N_14  and  C_15 
REMARK    6  A    between atoms: C_25  and  N_26 
REMARK    7  A    between atoms: C_31  and  O_32 
ROOT
HETATM    1  C   UNL     1       6.063   6.603  20.480  0.00  0.00     0.013 C 
HETATM    2  C   UNL     1       6.318   7.549  21.543  0.00  0.00     0.035 C 
HETATM    3  C   UNL     1       5.708   8.787  22.034  0.00  0.00     0.043 C 
HETATM    4  C   UNL     1       6.537   9.506  22.882  0.00  0.00     0.097 C 
HETATM    5  S   UNL     1       7.863   8.543  23.378  0.00  0.00    -0.062 SA
HETATM    6  C   UNL     1       7.422   7.271  22.346  0.00  0.00     0.113 C 
HETATM    7  N   UNL     1       8.178   6.160  22.353  0.00  0.00    -0.227 NA
HETATM    8  C   UNL     1       7.895   5.260  21.409  0.00  0.00     0.123 C 
HETATM    9  C   UNL     1       6.930   5.462  20.426  0.00  0.00     0.096 C 
HETATM   10  C   UNL     1       6.880   4.491  19.367  0.00  0.00     0.103 C 
HETATM   11  N   UNL     1       6.807   3.664  18.548  0.00  0.00    -0.191 NA
ENDROOT
BRANCH   1  12
HETATM   12  C   UNL     1       5.009   6.849  19.452  0.00  0.00    -0.021 C 
HETATM   13  C   UNL     1       3.802   6.144  19.456  0.00  0.00     0.015 C 
HETATM   14  C   UNL     1       2.865   6.282  18.432  0.00  0.00     0.040 C 
HETATM   15  C   UNL     1       2.990   7.283  17.466  0.00  0.00     0.101 C 
HETATM   16  C   UNL     1       4.142   8.070  17.475  0.00  0.00     0.102 C 
HETATM   17  C   UNL     1       5.171   7.757  18.392  0.00  0.00     0.052 C 
BRANCH  15  18
HETATM   18  O   UNL     1       2.037   7.462  16.502  0.00  0.00    -0.353 OA
HETATM   19  C   UNL     1       2.015   6.494  15.454  0.00  0.00     0.210 C 
ENDBRANCH  15  18
BRANCH  16  20
HETATM   20  O   UNL     1       4.465   9.151  16.703  0.00  0.00    -0.353 OA
HETATM   21  C   UNL     1       4.116  10.476  17.078  0.00  0.00     0.210 C 
ENDBRANCH  16  20
ENDBRANCH   1  12
BRANCH   8  22
HETATM   22  N   UNL     1       8.710   4.127  21.434  0.00  0.00    -0.286 NA
HETATM   23  H   UNL     1       8.981   3.901  20.479  0.00  0.00     0.125 HD
HETATM   24  H   UNL     1       9.516   4.206  22.049  0.00  0.00     0.125 HD
ENDBRANCH   8  22
BRANCH   3  25
HETATM   25  N   UNL     1       4.480   9.260  21.670  0.00  0.00    -0.301 NA
HETATM   26  H   UNL     1       3.829   9.499  22.423  0.00  0.00     0.124 HD
HETATM   27  H   UNL     1       3.957   8.692  20.998  0.00  0.00     0.124 HD
ENDBRANCH   3  25
BRANCH   4  28
HETATM   28  C   UNL     1       6.454  10.867  23.420  0.00  0.00     0.265 C 
HETATM   29  O   UNL     1       7.079  11.205  24.419  0.00  0.00    -0.267 OA
HETATM   30  N   UNL     1       5.629  11.720  22.701  0.00  0.00    -0.322 N 
HETATM   31  H   UNL     1       5.120  11.287  21.938  0.00  0.00     0.169 HD
BRANCH  30  32
HETATM   32  C   UNL     1       5.398  13.099  22.936  0.00  0.00     0.035 A 
HETATM   33  C   UNL     1       6.362  14.097  22.753  0.00  0.00     0.032 A 
HETATM   34  C   UNL     1       6.056  15.441  23.000  0.00  0.00     0.044 A 
HETATM   35  C   UNL     1       4.789  15.790  23.432  0.00  0.00     0.116 A 
HETATM   36  F   UNL     1       4.497  17.077  23.668  0.00  0.00    -0.206 F 
HETATM   37  C   UNL     1       3.812  14.818  23.620  0.00  0.00     0.044 A 
HETATM   38  C   UNL     1       4.117  13.475  23.370  0.00  0.00     0.032 A 
ENDBRANCH  30  32
ENDBRANCH   4  28
TORSDOF 7
ENDMDL
MODEL 7
REMARK VINA RESULT:    -6.929      3.595      4.795
REMARK INTER + INTRA:         -10.562
REMARK INTER:                  -9.359
REMARK INTRA:                  -1.203
REMARK UNBOUND:                -1.203
REMARK  7 active torsions:
REMARK  status: ('A' for Active; 'I' for Inactive)
REMARK    1  A    between atoms: O_2  and  C_3 
REMARK    2  A    between atoms: C_6  and  C_7 
REMARK    3  A    between atoms: C_9  and  N_10 
REMARK    4  A    between atoms: C_11  and  C_12 
REMARK       I    between atoms: C_12  and  N_14 
REMARK    5  A    between atoms: N_14  and  C_15 
REMARK    6  A    between atoms: C_25  and  N_26 
REMARK    7  A    between atoms: C_31  and  O_32 
ROOT
HETATM    1  C   UNL     1       7.158  10.521  22.818  0.00  0.00     0.013 C 
HETATM    2  C   UNL     1       6.831   9.411  21.951  0.00  0.00     0.035 C 
HETATM    3  C   UNL     1       5.815   9.115  20.938  0.00  0.00     0.043 C 
HETATM    4  C   UNL     1       5.724   7.765  20.633  0.00  0.00     0.097 C 
HETATM    5  S   UNL     1       7.073   6.919  21.262  0.00  0.00    -0.062 SA
HETATM    6  C   UNL     1       7.658   8.295  22.062  0.00  0.00     0.113 C 
HETATM    7  N   UNL     1       8.805   8.185  22.753  0.00  0.00    -0.227 NA
HETATM    8  C   UNL     1       9.135   9.239  23.501  0.00  0.00     0.123 C 
HETATM    9  C   UNL     1       8.329  10.367  23.629  0.00  0.00     0.096 C 
HETATM   10  C   UNL     1       8.725  11.330  24.622  0.00  0.00     0.103 C 
HETATM   11  N   UNL     1       9.091  12.132  25.385  0.00  0.00    -0.191 NA
ENDROOT
BRANCH   1  12
HETATM   12  C   UNL     1       6.274  11.720  22.916  0.00  0.00    -0.021 C 
HETATM   13  C   UNL     1       6.597  12.923  22.281  0.00  0.00     0.015 C 
HETATM   14  C   UNL     1       5.841  14.080  22.467  0.00  0.00     0.040 C 
HETATM   15  C   UNL     1       4.609  14.043  23.124  0.00  0.00     0.101 C 
HETATM   16  C   UNL     1       4.205  12.839  23.702  0.00  0.00     0.102 C 
HETATM   17  C   UNL     1       5.097  11.743  23.683  0.00  0.00     0.052 C 
BRANCH  15  18
HETATM   18  O   UNL     1       3.835  15.163  23.247  0.00  0.00    -0.353 OA
HETATM   19  C   UNL     1       4.266  16.120  24.214  0.00  0.00     0.210 C 
ENDBRANCH  15  18
BRANCH  16  20
HETATM   20  O   UNL     1       3.027  12.520  24.319  0.00  0.00    -0.353 OA
HETATM   21  C   UNL     1       2.110  11.590  23.761  0.00  0.00     0.210 C 
ENDBRANCH  16  20
ENDBRANCH   1  12
BRANCH   8  22
HETATM   22  N   UNL     1      10.322   9.084  24.220  0.00  0.00    -0.286 NA
HETATM   23  H   UNL     1      11.104   9.127  23.570  0.00  0.00     0.125 HD
HETATM   24  H   UNL     1      10.433   9.740  24.989  0.00  0.00     0.125 HD
ENDBRANCH   8  22
BRANCH   3  25
HETATM   25  N   UNL     1       4.974  10.030  20.373  0.00  0.00    -0.301 NA
HETATM   26  H   UNL     1       4.112   9.676  19.951  0.00  0.00     0.124 HD
HETATM   27  H   UNL     1       5.393  10.671  19.693  0.00  0.00     0.124 HD
ENDBRANCH   3  25
BRANCH   4  28
HETATM   28  C   UNL     1       4.736   6.991  19.876  0.00  0.00     0.265 C 
HETATM   29  O   UNL     1       3.961   6.217  20.428  0.00  0.00    -0.267 OA
HETATM   30  N   UNL     1       4.752   7.221  18.507  0.00  0.00    -0.322 N 
HETATM   31  H   UNL     1       5.491   7.833  18.181  0.00  0.00     0.169 HD
BRANCH  30  32
HETATM   32  C   UNL     1       3.883   6.674  17.530  0.00  0.00     0.035 A 
HETATM   33  C   UNL     1       3.905   5.336  17.123  0.00  0.00     0.032 A 
HETATM   34  C   UNL     1       3.008   4.867  16.154  0.00  0.00     0.044 A 
HETATM   35  C   UNL     1       2.090   5.734  15.590  0.00  0.00     0.116 A 
HETATM   36  F   UNL     1       1.232   5.285  14.664  0.00  0.00    -0.206 F 
HETATM   37  C   UNL     1       2.045   7.069  15.978  0.00  0.00     0.044 A 
HETATM   38  C   UNL     1       2.940   7.536  16.948  0.00  0.00     0.032 A 
ENDBRANCH  30  32
ENDBRANCH   4  28
TORSDOF 7
ENDMDL
MODEL 8
REMARK VINA RESULT:    -6.841      4.583      9.905
REMARK INTER + INTRA:         -10.443
REMARK INTER:                  -9.457
REMARK INTRA:                  -0.986
REMARK UNBOUND:                -1.203
REMARK  7 active torsions:
REMARK  status: ('A' for Active; 'I' for Inactive)
REMARK    1  A    between atoms: O_2  and  C_3 
REMARK    2  A    between atoms: C_6  and  C_7 
REMARK    3  A    between atoms: C_9  and  N_10 
REMARK    4  A    between atoms: C_11  and  C_12 
REMARK       I    between atoms: C_12  and  N_14 
REMARK    5  A    between atoms: N_14  and  C_15 
REMARK    6  A    between atoms: C_25  and  N_26 
REMARK    7  A    between atoms: C_31  and  O_32 
ROOT
HETATM    1  C   UNL     1       5.300   6.946  18.960  0.00  0.00     0.013 C 
HETATM    2  C   UNL     1       5.554   8.339  19.247  0.00  0.00     0.035 C 
HETATM    3  C   UNL     1       6.175   9.107  20.330  0.00  0.00     0.043 C 
HETATM    4  C   UNL     1       5.864  10.458  20.290  0.00  0.00     0.097 C 
HETATM    5  S   UNL     1       5.159  10.863  18.783  0.00  0.00    -0.062 SA
HETATM    6  C   UNL     1       5.115   9.244  18.282  0.00  0.00     0.113 C 
HETATM    7  N   UNL     1       4.633   8.974  17.058  0.00  0.00    -0.227 NA
HETATM    8  C   UNL     1       4.461   7.681  16.774  0.00  0.00     0.123 C 
HETATM    9  C   UNL     1       4.694   6.660  17.692  0.00  0.00     0.096 C 
HETATM   10  C   UNL     1       4.276   5.340  17.304  0.00  0.00     0.103 C 
HETATM   11  N   UNL     1       3.990   4.266  16.953  0.00  0.00    -0.191 NA
ENDROOT
BRANCH   1  12
HETATM   12  C   UNL     1       5.577   5.878  19.966  0.00  0.00    -0.021 C 
HETATM   13  C   UNL     1       4.655   5.554  20.964  0.00  0.00     0.015 C 
HETATM   14  C   UNL     1       4.955   4.643  21.978  0.00  0.00     0.040 C 
HETATM   15  C   UNL     1       6.108   3.856  21.925  0.00  0.00     0.101 C 
HETATM   16  C   UNL     1       7.020   4.087  20.894  0.00  0.00     0.102 C 
HETATM   17  C   UNL     1       6.787   5.166  20.012  0.00  0.00     0.052 C 
BRANCH  15  18
HETATM   18  O   UNL     1       6.370   2.915  22.882  0.00  0.00    -0.353 OA
HETATM   19  C   UNL     1       7.158   3.351  23.990  0.00  0.00     0.210 C 
ENDBRANCH  15  18
BRANCH  16  20
HETATM   20  O   UNL     1       8.164   3.411  20.575  0.00  0.00    -0.353 OA
HETATM   21  C   UNL     1       9.447   4.013  20.671  0.00  0.00     0.210 C 
ENDBRANCH  16  20
ENDBRANCH   1  12
BRANCH   8  22
HETATM   22  N   UNL     1       3.940   7.436  15.502  0.00  0.00    -0.286 NA
HETATM   23  H   UNL     1       4.043   8.280  14.941  0.00  0.00     0.125 HD
HETATM   24  H   UNL     1       4.336   6.622  15.039  0.00  0.00     0.125 HD
ENDBRANCH   8  22
BRANCH   3  25
HETATM   25  N   UNL     1       6.932   8.580  21.336  0.00  0.00    -0.301 NA
HETATM   26  H   UNL     1       7.938   8.767  21.311  0.00  0.00     0.124 HD
HETATM   27  H   UNL     1       6.824   7.577  21.508  0.00  0.00     0.124 HD
ENDBRANCH   3  25
BRANCH   4  28
HETATM   28  C   UNL     1       6.059  11.542  21.257  0.00  0.00     0.265 C 
HETATM   29  O   UNL     1       7.139  11.731  21.806  0.00  0.00    -0.267 OA
HETATM   30  N   UNL     1       4.935  12.325  21.477  0.00  0.00    -0.322 N 
HETATM   31  H   UNL     1       4.092  12.012  21.009  0.00  0.00     0.169 HD
BRANCH  30  32
HETATM   32  C   UNL     1       4.831  13.475  22.301  0.00  0.00     0.035 A 
HETATM   33  C   UNL     1       5.878  14.377  22.521  0.00  0.00     0.032 A 
HETATM   34  C   UNL     1       5.697  15.496  23.344  0.00  0.00     0.044 A 
HETATM   35  C   UNL     1       4.472  15.713  23.949  0.00  0.00     0.116 A 
HETATM   36  F   UNL     1       4.299  16.785  24.736  0.00  0.00    -0.206 F 
HETATM   37  C   UNL     1       3.415  14.833  23.745  0.00  0.00     0.044 A 
HETATM   38  C   UNL     1       3.595  13.717  22.920  0.00  0.00     0.032 A 
ENDBRANCH  30  32
ENDBRANCH   4  28
TORSDOF 7
ENDMDL
