MODEL 1
REMARK VINA RESULT:    -8.706      0.000      0.000
REMARK INTER + INTRA:         -12.198
REMARK INTER:                 -10.598
REMARK INTRA:                  -1.601
REMARK UNBOUND:                -1.202
REMARK  5 active torsions:
REMARK  status: ('A' for Active; 'I' for Inactive)
REMARK    1  A    between atoms: C_2  and  N_3 
REMARK       I    between atoms: N_3  and  C_4 
REMARK    2  A    between atoms: C_4  and  C_6 
REMARK    3  A    between atoms: C_6  and  C_10 
REMARK    4  A    between atoms: C_17  and  N_18 
REMARK    5  A    between atoms: C_20  and  C_21 
REMARK       I    between atoms: C_21  and  N_23 
ROOT
HETATM    1  C   UNL     1       7.027  14.545  22.821  0.00  0.00    -0.039 A 
HETATM    2  C   UNL     1       6.209  13.549  22.253  0.00  0.00     0.024 A 
HETATM    3  C   UNL     1       4.793  13.534  22.398  0.00  0.00     0.028 A 
HETATM    4  C   UNL     1       4.169  14.529  23.149  0.00  0.00     0.073 A 
HETATM    5  C   UNL     1       4.962  15.499  23.737  0.00  0.00     0.033 A 
HETATM    6  C   UNL     1       6.355  15.511  23.588  0.00  0.00     0.011 A 
HETATM    7  N   UNL     1       2.845  14.584  23.340  0.00  0.00    -0.218 NA
HETATM    8  C   UNL     1       2.090  13.654  22.763  0.00  0.00     0.200 A 
HETATM    9  N   UNL     1       2.559  12.640  22.055  0.00  0.00    -0.212 NA
HETATM   10  C   UNL     1       3.903  12.591  21.883  0.00  0.00     0.140 A 
ENDROOT
BRANCH  10  11
HETATM   11  C   UNL     1       4.367  11.408  21.075  0.00  0.00     0.274 C 
HETATM   12  O   UNL     1       4.509  11.505  19.858  0.00  0.00    -0.266 OA
HETATM   13  N   UNL     1       4.610  10.226  21.756  0.00  0.00    -0.338 N 
HETATM   14  C   UNL     1       4.863   8.969  21.053  0.00  0.00     0.165 C 
HETATM   15  C   UNL     1       4.919  10.134  23.183  0.00  0.00     0.165 C 
HETATM   16  C   UNL     1       5.167   8.008  22.162  0.00  0.00    -0.032 A 
HETATM   17  C   UNL     1       5.383   6.642  22.107  0.00  0.00     0.009 A 
HETATM   18  C   UNL     1       5.221   8.688  23.384  0.00  0.00    -0.032 A 
HETATM   19  C   UNL     1       5.662   5.968  23.301  0.00  0.00     0.001 A 
HETATM   20  C   UNL     1       5.727   6.658  24.522  0.00  0.00     0.001 A 
HETATM   21  C   UNL     1       5.505   8.034  24.569  0.00  0.00     0.009 A 
ENDBRANCH  10  11
BRANCH   8  22
HETATM   22  N   UNL     1       0.733  13.709  22.971  0.00  0.00    -0.271 NA
HETATM   23  H   UNL     1       0.523  13.934  23.933  0.00  0.00     0.127 HD
HETATM   24  H   UNL     1       0.270  12.912  22.559  0.00  0.00     0.127 HD
ENDBRANCH   8  22
BRANCH   1  25
HETATM   25  C   UNL     1       8.628  14.563  22.620  0.00  0.00     0.068 C 
HETATM   26  C   UNL     1       9.367  15.911  22.980  0.00  0.00     0.024 C 
HETATM   27  C   UNL     1       9.283  16.306  21.499  0.00  0.00     0.003 C 
HETATM   28  C   UNL     1       9.175  14.813  21.163  0.00  0.00     0.024 C 
BRANCH  25  29
HETATM   29  C   UNL     1       9.207  13.275  23.350  0.00  0.00     0.231 C 
HETATM   30  N   UNL     1       9.412  12.199  22.501  0.00  0.00    -0.360 N 
HETATM   31  H   UNL     1       9.098  12.266  21.543  0.00  0.00     0.162 HD
HETATM   32  O   UNL     1       9.464  13.204  24.554  0.00  0.00    -0.272 OA
BRANCH  30  33
HETATM   33  C   UNL     1       9.913  10.925  22.972  0.00  0.00     0.118 C 
HETATM   34  C   UNL     1       8.783   9.964  23.288  0.00  0.00     0.026 C 
ENDBRANCH  30  33
ENDBRANCH  25  29
ENDBRANCH   1  25
TORSDOF 5
ENDMDL
MODEL 2
REMARK VINA RESULT:    -8.572      2.176      4.962
REMARK INTER + INTRA:         -12.030
REMARK INTER:                 -10.868
REMARK INTRA:                  -1.162
REMARK UNBOUND:                -1.202
REMARK  5 active torsions:
REMARK  status: ('A' for Active; 'I' for Inactive)
REMARK    1  A    between atoms: C_2  and  N_3 
REMARK       I    between atoms: N_3  and  C_4 
REMARK    2  A    between atoms: C_4  and  C_6 
REMARK    3  A    between atoms: C_6  and  C_10 
REMARK    4  A    between atoms: C_17  and  N_18 
REMARK    5  A    between atoms: C_20  and  C_21 
REMARK       I    between atoms: C_21  and  N_23 
ROOT
HETATM    1  C   UNL     1       4.209  14.161  23.137  0.00  0.00    -0.039 A 
HETATM    2  C   UNL     1       5.124  13.384  22.400  0.00  0.00     0.024 A 
HETATM    3  C   UNL     1       6.462  13.797  22.147  0.00  0.00     0.028 A 
HETATM    4  C   UNL     1       6.903  15.030  22.624  0.00  0.00     0.073 A 
HETATM    5  C   UNL     1       6.007  15.818  23.326  0.00  0.00     0.033 A 
HETATM    6  C   UNL     1       4.691  15.405  23.575  0.00  0.00     0.011 A 
HETATM    7  N   UNL     1       8.142  15.495  22.424  0.00  0.00    -0.218 NA
HETATM    8  C   UNL     1       8.999  14.727  21.758  0.00  0.00     0.200 A 
HETATM    9  N   UNL     1       8.698  13.554  21.226  0.00  0.00    -0.212 NA
HETATM   10  C   UNL     1       7.435  13.104  21.424  0.00  0.00     0.140 A 
ENDROOT
BRANCH  10  11
HETATM   11  C   UNL     1       7.160  11.769  20.786  0.00  0.00     0.274 C 
HETATM   12  O   UNL     1       6.704  11.708  19.646  0.00  0.00    -0.266 OA
HETATM   13  N   UNL     1       7.429  10.636  21.536  0.00  0.00    -0.338 N 
HETATM   14  C   UNL     1       7.011   9.304  21.098  0.00  0.00     0.165 C 
HETATM   15  C   UNL     1       8.368  10.580  22.656  0.00  0.00     0.165 C 
HETATM   16  C   UNL     1       7.591   8.399  22.142  0.00  0.00    -0.032 A 
HETATM   17  C   UNL     1       7.435   7.034  22.308  0.00  0.00     0.009 A 
HETATM   18  C   UNL     1       8.392   9.135  23.023  0.00  0.00    -0.032 A 
HETATM   19  C   UNL     1       8.102   6.416  23.371  0.00  0.00     0.001 A 
HETATM   20  C   UNL     1       8.913   7.159  24.245  0.00  0.00     0.001 A 
HETATM   21  C   UNL     1       9.063   8.534  24.072  0.00  0.00     0.009 A 
ENDBRANCH  10  11
BRANCH   8  22
HETATM   22  N   UNL     1      10.267  15.214  21.548  0.00  0.00    -0.271 NA
HETATM   23  H   UNL     1      10.914  14.463  21.351  0.00  0.00     0.127 HD
HETATM   24  H   UNL     1      10.522  15.883  22.259  0.00  0.00     0.127 HD
ENDBRANCH   8  22
BRANCH   1  25
HETATM   25  C   UNL     1       2.704  13.664  23.440  0.00  0.00     0.068 C 
HETATM   26  C   UNL     1       1.655  13.847  22.274  0.00  0.00     0.024 C 
HETATM   27  C   UNL     1       1.232  15.175  22.916  0.00  0.00     0.003 C 
HETATM   28  C   UNL     1       1.765  14.638  24.250  0.00  0.00     0.024 C 
BRANCH  25  29
HETATM   29  C   UNL     1       2.805  12.185  24.014  0.00  0.00     0.231 C 
HETATM   30  N   UNL     1       3.991  11.929  24.685  0.00  0.00    -0.360 N 
HETATM   31  H   UNL     1       4.720  12.629  24.674  0.00  0.00     0.162 HD
HETATM   32  O   UNL     1       1.932  11.323  23.897  0.00  0.00    -0.272 OA
BRANCH  30  33
HETATM   33  C   UNL     1       4.289  10.636  25.264  0.00  0.00     0.118 C 
HETATM   34  C   UNL     1       5.026   9.743  24.284  0.00  0.00     0.026 C 
ENDBRANCH  30  33
ENDBRANCH  25  29
ENDBRANCH   1  25
TORSDOF 5
ENDMDL
MODEL 3
REMARK VINA RESULT:    -8.486      1.972      2.949
REMARK INTER + INTRA:         -11.920
REMARK INTER:                 -10.768
REMARK INTRA:                  -1.153
REMARK UNBOUND:                -1.202
REMARK  5 active torsions:
REMARK  status: ('A' for Active; 'I' for Inactive)
REMARK    1  A    between atoms: C_2  and  N_3 
REMARK       I    between atoms: N_3  and  C_4 
REMARK    2  A    between atoms: C_4  and  C_6 
REMARK    3  A    between atoms: C_6  and  C_10 
REMARK    4  A    between atoms: C_17  and  N_18 
REMARK    5  A    between atoms: C_20  and  C_21 
REMARK       I    between atoms: C_21  and  N_23 
ROOT
HETATM    1  C   UNL     1       7.057  14.656  22.948  0.00  0.00    -0.039 A 
HETATM    2  C   UNL     1       6.170  13.564  23.012  0.00  0.00     0.024 A 
HETATM    3  C   UNL     1       4.786  13.708  23.315  0.00  0.00     0.028 A 
HETATM    4  C   UNL     1       4.270  14.974  23.582  0.00  0.00     0.073 A 
HETATM    5  C   UNL     1       5.135  16.054  23.551  0.00  0.00     0.033 A 
HETATM    6  C   UNL     1       6.495  15.908  23.248  0.00  0.00     0.011 A 
HETATM    7  N   UNL     1       2.984  15.195  23.882  0.00  0.00    -0.218 NA
HETATM    8  C   UNL     1       2.158  14.153  23.901  0.00  0.00     0.200 A 
HETATM    9  N   UNL     1       2.527  12.900  23.698  0.00  0.00    -0.212 NA
HETATM   10  C   UNL     1       3.835  12.692  23.410  0.00  0.00     0.140 A 
ENDROOT
BRANCH  10  11
HETATM   11  C   UNL     1       4.186  11.243  23.200  0.00  0.00     0.274 C 
HETATM   12  O   UNL     1       4.188  10.460  24.148  0.00  0.00    -0.266 OA
HETATM   13  N   UNL     1       4.512  10.846  21.913  0.00  0.00    -0.338 N 
HETATM   14  C   UNL     1       5.064   9.521  21.631  0.00  0.00     0.165 C 
HETATM   15  C   UNL     1       4.100  11.544  20.695  0.00  0.00     0.165 C 
HETATM   16  C   UNL     1       5.162   9.499  20.136  0.00  0.00    -0.032 A 
HETATM   17  C   UNL     1       5.712   8.538  19.305  0.00  0.00     0.009 A 
HETATM   18  C   UNL     1       4.584  10.655  19.600  0.00  0.00    -0.032 A 
HETATM   19  C   UNL     1       5.666   8.753  17.923  0.00  0.00     0.001 A 
HETATM   20  C   UNL     1       5.074   9.911  17.392  0.00  0.00     0.001 A 
HETATM   21  C   UNL     1       4.525  10.875  18.236  0.00  0.00     0.009 A 
ENDBRANCH  10  11
BRANCH   8  22
HETATM   22  N   UNL     1       0.841  14.385  24.218  0.00  0.00    -0.271 NA
HETATM   23  H   UNL     1       0.709  15.332  24.545  0.00  0.00     0.127 HD
HETATM   24  H   UNL     1       0.466  13.634  24.780  0.00  0.00     0.127 HD
ENDBRANCH   8  22
BRANCH   1  25
HETATM   25  C   UNL     1       8.617  14.478  22.573  0.00  0.00     0.068 C 
HETATM   26  C   UNL     1       9.533  15.751  22.751  0.00  0.00     0.024 C 
HETATM   27  C   UNL     1       9.320  16.063  21.263  0.00  0.00     0.003 C 
HETATM   28  C   UNL     1       9.014  14.575  21.050  0.00  0.00     0.024 C 
BRANCH  25  29
HETATM   29  C   UNL     1       9.135  13.178  23.327  0.00  0.00     0.231 C 
HETATM   30  N   UNL     1       9.240  13.336  24.700  0.00  0.00    -0.360 N 
HETATM   31  H   UNL     1       9.089  14.252  25.099  0.00  0.00     0.162 HD
HETATM   32  O   UNL     1       9.422  12.112  22.778  0.00  0.00    -0.272 OA
BRANCH  30  33
HETATM   33  C   UNL     1       9.714  12.279  25.567  0.00  0.00     0.118 C 
HETATM   34  C   UNL     1      11.109  12.568  26.088  0.00  0.00     0.026 C 
ENDBRANCH  30  33
ENDBRANCH  25  29
ENDBRANCH   1  25
TORSDOF 5
ENDMDL
MODEL 4
REMARK VINA RESULT:    -8.457      2.654      6.849
REMARK INTER + INTRA:         -11.883
REMARK INTER:                 -10.478
REMARK INTRA:                  -1.406
REMARK UNBOUND:                -1.202
REMARK  5 active torsions:
REMARK  status: ('A' for Active; 'I' for Inactive)
REMARK    1  A    between atoms: C_2  and  N_3 
REMARK       I    between atoms: N_3  and  C_4 
REMARK    2  A    between atoms: C_4  and  C_6 
REMARK    3  A    between atoms: C_6  and  C_10 
REMARK    4  A    between atoms: C_17  and  N_18 
REMARK    5  A    between atoms: C_20  and  C_21 
REMARK       I    between atoms: C_21  and  N_23 
ROOT
HETATM    1  C   UNL     1       6.132   7.959  22.245  0.00  0.00    -0.039 A 
HETATM    2  C   UNL     1       6.439   9.166  21.589  0.00  0.00     0.024 A 
HETATM    3  C   UNL     1       5.877   9.529  20.332  0.00  0.00     0.028 A 
HETATM    4  C   UNL     1       4.996   8.657  19.696  0.00  0.00     0.073 A 
HETATM    5  C   UNL     1       4.706   7.453  20.315  0.00  0.00     0.033 A 
HETATM    6  C   UNL     1       5.259   7.103  21.554  0.00  0.00     0.011 A 
HETATM    7  N   UNL     1       4.430   8.919  18.512  0.00  0.00    -0.218 NA
HETATM    8  C   UNL     1       4.706  10.082  17.929  0.00  0.00     0.200 A 
HETATM    9  N   UNL     1       5.549  10.980  18.410  0.00  0.00    -0.212 NA
HETATM   10  C   UNL     1       6.125  10.693  19.603  0.00  0.00     0.140 A 
ENDROOT
BRANCH  10  11
HETATM   11  C   UNL     1       7.078  11.754  20.087  0.00  0.00     0.274 C 
HETATM   12  O   UNL     1       8.206  11.841  19.608  0.00  0.00    -0.266 OA
HETATM   13  N   UNL     1       6.632  12.603  21.088  0.00  0.00    -0.338 N 
HETATM   14  C   UNL     1       7.535  13.528  21.772  0.00  0.00     0.165 C 
HETATM   15  C   UNL     1       5.227  12.883  21.380  0.00  0.00     0.165 C 
HETATM   16  C   UNL     1       6.621  14.295  22.678  0.00  0.00    -0.032 A 
HETATM   17  C   UNL     1       6.928  15.239  23.644  0.00  0.00     0.009 A 
HETATM   18  C   UNL     1       5.290  13.938  22.432  0.00  0.00    -0.032 A 
HETATM   19  C   UNL     1       5.875  15.824  24.355  0.00  0.00     0.001 A 
HETATM   20  C   UNL     1       4.541  15.469  24.095  0.00  0.00     0.001 A 
HETATM   21  C   UNL     1       4.241  14.516  23.122  0.00  0.00     0.009 A 
ENDBRANCH  10  11
BRANCH   8  22
HETATM   22  N   UNL     1       4.129  10.341  16.709  0.00  0.00    -0.271 NA
HETATM   23  H   UNL     1       4.201   9.540  16.097  0.00  0.00     0.127 HD
HETATM   24  H   UNL     1       4.426  11.237  16.350  0.00  0.00     0.127 HD
ENDBRANCH   8  22
BRANCH   1  25
HETATM   25  C   UNL     1       6.755   7.577  23.684  0.00  0.00     0.068 C 
HETATM   26  C   UNL     1       7.975   8.451  24.176  0.00  0.00     0.024 C 
HETATM   27  C   UNL     1       8.918   7.385  23.603  0.00  0.00     0.003 C 
HETATM   28  C   UNL     1       7.773   6.374  23.739  0.00  0.00     0.024 C 
BRANCH  25  29
HETATM   29  C   UNL     1       5.545   7.490  24.711  0.00  0.00     0.231 C 
HETATM   30  N   UNL     1       4.833   8.673  24.834  0.00  0.00    -0.360 N 
HETATM   31  H   UNL     1       5.177   9.501  24.367  0.00  0.00     0.162 HD
HETATM   32  O   UNL     1       5.236   6.483  25.351  0.00  0.00    -0.272 OA
BRANCH  30  33
HETATM   33  C   UNL     1       3.708   8.810  25.734  0.00  0.00     0.118 C 
HETATM   34  C   UNL     1       2.395   8.890  24.979  0.00  0.00     0.026 C 
ENDBRANCH  30  33
ENDBRANCH  25  29
ENDBRANCH   1  25
TORSDOF 5
ENDMDL
MODEL 5
REMARK VINA RESULT:    -8.436      1.350      1.799
REMARK INTER + INTRA:         -11.857
REMARK INTER:                 -10.780
REMARK INTRA:                  -1.077
REMARK UNBOUND:                -1.202
REMARK  5 active torsions:
REMARK  status: ('A' for Active; 'I' for Inactive)
REMARK    1  A    between atoms: C_2  and  N_3 
REMARK       I    between atoms: N_3  and  C_4 
REMARK    2  A    between atoms: C_4  and  C_6 
REMARK    3  A    between atoms: C_6  and  C_10 
REMARK    4  A    between atoms: C_17  and  N_18 
REMARK    5  A    between atoms: C_20  and  C_21 
REMARK       I    between atoms: C_21  and  N_23 
ROOT
HETATM    1  C   UNL     1       6.719  14.835  23.026  0.00  0.00    -0.039 A 
HETATM    2  C   UNL     1       6.026  13.750  22.454  0.00  0.00     0.024 A 
HETATM    3  C   UNL     1       4.607  13.630  22.494  0.00  0.00     0.028 A 
HETATM    4  C   UNL     1       3.853  14.609  23.139  0.00  0.00     0.073 A 
HETATM    5  C   UNL     1       4.523  15.666  23.730  0.00  0.00     0.033 A 
HETATM    6  C   UNL     1       5.918  15.782  23.685  0.00  0.00     0.011 A 
HETATM    7  N   UNL     1       2.519  14.567  23.228  0.00  0.00    -0.218 NA
HETATM    8  C   UNL     1       1.883  13.553  22.649  0.00  0.00     0.200 A 
HETATM    9  N   UNL     1       2.482  12.545  22.035  0.00  0.00    -0.212 NA
HETATM   10  C   UNL     1       3.835  12.595  21.967  0.00  0.00     0.140 A 
ENDROOT
BRANCH  10  11
HETATM   11  C   UNL     1       4.449  11.414  21.264  0.00  0.00     0.274 C 
HETATM   12  O   UNL     1       4.814  11.508  20.094  0.00  0.00    -0.266 OA
HETATM   13  N   UNL     1       4.568  10.235  21.983  0.00  0.00    -0.338 N 
HETATM   14  C   UNL     1       4.956   8.978  21.343  0.00  0.00     0.165 C 
HETATM   15  C   UNL     1       4.607  10.148  23.442  0.00  0.00     0.165 C 
HETATM   16  C   UNL     1       5.054   8.021  22.492  0.00  0.00    -0.032 A 
HETATM   17  C   UNL     1       5.286   6.657  22.482  0.00  0.00     0.009 A 
HETATM   18  C   UNL     1       4.876   8.704  23.700  0.00  0.00    -0.032 A 
HETATM   19  C   UNL     1       5.342   5.987  23.710  0.00  0.00     0.001 A 
HETATM   20  C   UNL     1       5.174   6.681  24.920  0.00  0.00     0.001 A 
HETATM   21  C   UNL     1       4.939   8.054  24.920  0.00  0.00     0.009 A 
ENDBRANCH  10  11
BRANCH   8  22
HETATM   22  N   UNL     1       0.513  13.511  22.751  0.00  0.00    -0.271 NA
HETATM   23  H   UNL     1       0.113  14.429  22.618  0.00  0.00     0.127 HD
HETATM   24  H   UNL     1       0.226  12.983  23.562  0.00  0.00     0.127 HD
ENDBRANCH   8  22
BRANCH   1  25
HETATM   25  C   UNL     1       8.325  14.969  22.944  0.00  0.00     0.068 C 
HETATM   26  C   UNL     1       8.888  16.156  22.067  0.00  0.00     0.024 C 
HETATM   27  C   UNL     1       9.017  15.174  20.894  0.00  0.00     0.003 C 
HETATM   28  C   UNL     1       9.082  14.038  21.922  0.00  0.00     0.024 C 
BRANCH  25  29
HETATM   29  C   UNL     1       8.875  14.929  24.435  0.00  0.00     0.231 C 
HETATM   30  N   UNL     1      10.102  15.553  24.593  0.00  0.00    -0.360 N 
HETATM   31  H   UNL     1      10.591  15.884  23.772  0.00  0.00     0.162 HD
HETATM   32  O   UNL     1       8.292  14.405  25.387  0.00  0.00    -0.272 OA
BRANCH  30  33
HETATM   33  C   UNL     1      10.786  15.607  25.867  0.00  0.00     0.118 C 
HETATM   34  C   UNL     1      11.873  14.554  25.962  0.00  0.00     0.026 C 
ENDBRANCH  30  33
ENDBRANCH  25  29
ENDBRANCH   1  25
TORSDOF 5
ENDMDL
MODEL 6
REMARK VINA RESULT:    -8.359      1.396      2.611
REMARK INTER + INTRA:         -11.760
REMARK INTER:                 -10.506
REMARK INTRA:                  -1.253
REMARK UNBOUND:                -1.202
REMARK  5 active torsions:
REMARK  status: ('A' for Active; 'I' for Inactive)
REMARK    1  A    between atoms: C_2  and  N_3 
REMARK       I    between atoms: N_3  and  C_4 
REMARK    2  A    between atoms: C_4  and  C_6 
REMARK    3  A    between atoms: C_6  and  C_10 
REMARK    4  A    between atoms: C_17  and  N_18 
REMARK    5  A    between atoms: C_20  and  C_21 
REMARK       I    between atoms: C_21  and  N_23 
ROOT
HETATM    1  C   UNL     1       7.066  14.608  23.126  0.00  0.00    -0.039 A 
HETATM    2  C   UNL     1       6.328  13.609  22.463  0.00  0.00     0.024 A 
HETATM    3  C   UNL     1       4.904  13.588  22.436  0.00  0.00     0.028 A 
HETATM    4  C   UNL     1       4.189  14.579  23.105  0.00  0.00     0.073 A 
HETATM    5  C   UNL     1       4.901  15.552  23.786  0.00  0.00     0.033 A 
HETATM    6  C   UNL     1       6.302  15.570  23.806  0.00  0.00     0.011 A 
HETATM    7  N   UNL     1       2.852  14.628  23.135  0.00  0.00    -0.218 NA
HETATM    8  C   UNL     1       2.177  13.695  22.470  0.00  0.00     0.200 A 
HETATM    9  N   UNL     1       2.733  12.684  21.824  0.00  0.00    -0.212 NA
HETATM   10  C   UNL     1       4.088  12.641  21.816  0.00  0.00     0.140 A 
ENDROOT
BRANCH  10  11
HETATM   11  C   UNL     1       4.652  11.460  21.071  0.00  0.00     0.274 C 
HETATM   12  O   UNL     1       4.973  11.568  19.889  0.00  0.00    -0.266 OA
HETATM   13  N   UNL     1       4.776  10.268  21.765  0.00  0.00    -0.338 N 
HETATM   14  C   UNL     1       5.115   9.015  21.091  0.00  0.00     0.165 C 
HETATM   15  C   UNL     1       4.869  10.155  23.220  0.00  0.00     0.165 C 
HETATM   16  C   UNL     1       5.239   8.037  22.219  0.00  0.00    -0.032 A 
HETATM   17  C   UNL     1       5.444   6.669  22.179  0.00  0.00     0.009 A 
HETATM   18  C   UNL     1       5.121   8.703  23.445  0.00  0.00    -0.032 A 
HETATM   19  C   UNL     1       5.535   5.978  23.393  0.00  0.00     0.001 A 
HETATM   20  C   UNL     1       5.427   6.654  24.619  0.00  0.00     0.001 A 
HETATM   21  C   UNL     1       5.218   8.032  24.650  0.00  0.00     0.009 A 
ENDBRANCH  10  11
BRANCH   8  22
HETATM   22  N   UNL     1       0.804  13.745  22.512  0.00  0.00    -0.271 NA
HETATM   23  H   UNL     1       0.486  14.589  22.968  0.00  0.00     0.127 HD
HETATM   24  H   UNL     1       0.419  12.865  22.823  0.00  0.00     0.127 HD
ENDBRANCH   8  22
BRANCH   1  25
HETATM   25  C   UNL     1       8.679  14.633  23.121  0.00  0.00     0.068 C 
HETATM   26  C   UNL     1       9.405  13.256  23.390  0.00  0.00     0.024 C 
HETATM   27  C   UNL     1       9.510  13.646  24.871  0.00  0.00     0.003 C 
HETATM   28  C   UNL     1       9.404  15.113  24.437  0.00  0.00     0.024 C 
BRANCH  25  29
HETATM   29  C   UNL     1       9.133  15.371  21.788  0.00  0.00     0.231 C 
HETATM   30  N   UNL     1       9.669  16.631  22.005  0.00  0.00    -0.360 N 
HETATM   31  H   UNL     1       9.641  17.020  22.938  0.00  0.00     0.162 HD
HETATM   32  O   UNL     1       9.036  14.899  20.654  0.00  0.00    -0.272 OA
BRANCH  30  33
HETATM   33  C   UNL     1      10.121  17.477  20.922  0.00  0.00     0.118 C 
HETATM   34  C   UNL     1       9.090  18.533  20.570  0.00  0.00     0.026 C 
ENDBRANCH  30  33
ENDBRANCH  25  29
ENDBRANCH   1  25
TORSDOF 5
ENDMDL
MODEL 7
REMARK VINA RESULT:    -8.358      2.269      5.843
REMARK INTER + INTRA:         -11.759
REMARK INTER:                 -11.343
REMARK INTRA:                  -0.416
REMARK UNBOUND:                -1.202
REMARK  5 active torsions:
REMARK  status: ('A' for Active; 'I' for Inactive)
REMARK    1  A    between atoms: C_2  and  N_3 
REMARK       I    between atoms: N_3  and  C_4 
REMARK    2  A    between atoms: C_4  and  C_6 
REMARK    3  A    between atoms: C_6  and  C_10 
REMARK    4  A    between atoms: C_17  and  N_18 
REMARK    5  A    between atoms: C_20  and  C_21 
REMARK       I    between atoms: C_21  and  N_23 
ROOT
HETATM    1  C   UNL     1       5.877  14.449  22.938  0.00  0.00    -0.039 A 
HETATM    2  C   UNL     1       6.356  13.175  22.577  0.00  0.00     0.024 A 
HETATM    3  C   UNL     1       7.679  12.953  22.100  0.00  0.00     0.028 A 
HETATM    4  C   UNL     1       8.548  14.032  21.956  0.00  0.00     0.073 A 
HETATM    5  C   UNL     1       8.082  15.295  22.280  0.00  0.00     0.033 A 
HETATM    6  C   UNL     1       6.781  15.508  22.753  0.00  0.00     0.011 A 
HETATM    7  N   UNL     1       9.803  13.910  21.508  0.00  0.00    -0.218 NA
HETATM    8  C   UNL     1      10.246  12.693  21.209  0.00  0.00     0.200 A 
HETATM    9  N   UNL     1       9.514  11.593  21.269  0.00  0.00    -0.212 NA
HETATM   10  C   UNL     1       8.240  11.735  21.711  0.00  0.00     0.140 A 
ENDROOT
BRANCH  10  11
HETATM   11  C   UNL     1       7.463  10.446  21.747  0.00  0.00     0.274 C 
HETATM   12  O   UNL     1       7.561   9.689  22.710  0.00  0.00    -0.266 OA
HETATM   13  N   UNL     1       6.659  10.156  20.657  0.00  0.00    -0.338 N 
HETATM   14  C   UNL     1       6.026   8.848  20.493  0.00  0.00     0.165 C 
HETATM   15  C   UNL     1       6.126  11.150  19.726  0.00  0.00     0.165 C 
HETATM   16  C   UNL     1       5.192   9.020  19.260  0.00  0.00    -0.032 A 
HETATM   17  C   UNL     1       4.449   8.083  18.563  0.00  0.00     0.009 A 
HETATM   18  C   UNL     1       5.233  10.353  18.836  0.00  0.00    -0.032 A 
HETATM   19  C   UNL     1       3.740   8.508  17.434  0.00  0.00     0.001 A 
HETATM   20  C   UNL     1       3.777   9.850  17.020  0.00  0.00     0.001 A 
HETATM   21  C   UNL     1       4.530  10.787  17.726  0.00  0.00     0.009 A 
ENDBRANCH  10  11
BRANCH   8  22
HETATM   22  N   UNL     1      11.533  12.574  20.740  0.00  0.00    -0.271 NA
HETATM   23  H   UNL     1      11.962  11.723  21.074  0.00  0.00     0.127 HD
HETATM   24  H   UNL     1      12.042  13.438  20.856  0.00  0.00     0.127 HD
ENDBRANCH   8  22
BRANCH   1  25
HETATM   25  C   UNL     1       4.384  14.678  23.507  0.00  0.00     0.068 C 
HETATM   26  C   UNL     1       3.888  16.175  23.599  0.00  0.00     0.024 C 
HETATM   27  C   UNL     1       4.336  16.190  25.067  0.00  0.00     0.003 C 
HETATM   28  C   UNL     1       4.192  14.663  25.072  0.00  0.00     0.024 C 
BRANCH  25  29
HETATM   29  C   UNL     1       3.419  13.710  22.695  0.00  0.00     0.231 C 
HETATM   30  N   UNL     1       2.085  13.824  23.054  0.00  0.00    -0.360 N 
HETATM   31  H   UNL     1       1.840  14.409  23.841  0.00  0.00     0.162 HD
HETATM   32  O   UNL     1       3.785  12.922  21.820  0.00  0.00    -0.272 OA
BRANCH  30  33
HETATM   33  C   UNL     1       1.049  13.015  22.451  0.00  0.00     0.118 C 
HETATM   34  C   UNL     1       0.459  13.687  21.225  0.00  0.00     0.026 C 
ENDBRANCH  30  33
ENDBRANCH  25  29
ENDBRANCH   1  25
TORSDOF 5
ENDMDL
MODEL 8
REMARK VINA RESULT:    -8.186      2.515      5.345
REMARK INTER + INTRA:         -11.541
REMARK INTER:                 -10.080
REMARK INTRA:                  -1.461
REMARK UNBOUND:                -1.202
REMARK  5 active torsions:
REMARK  status: ('A' for Active; 'I' for Inactive)
REMARK    1  A    between atoms: C_2  and  N_3 
REMARK       I    between atoms: N_3  and  C_4 
REMARK    2  A    between atoms: C_4  and  C_6 
REMARK    3  A    between atoms: C_6  and  C_10 
REMARK    4  A    between atoms: C_17  and  N_18 
REMARK    5  A    between atoms: C_20  and  C_21 
REMARK       I    between atoms: C_21  and  N_23 
ROOT
HETATM    1  C   UNL     1       8.467  12.459  22.182  0.00  0.00    -0.039 A 
HETATM    2  C   UNL     1       7.221  11.804  22.189  0.00  0.00     0.024 A 
HETATM    3  C   UNL     1       6.612  11.287  21.010  0.00  0.00     0.028 A 
HETATM    4  C   UNL     1       7.251  11.443  19.782  0.00  0.00     0.073 A 
HETATM    5  C   UNL     1       8.463  12.111  19.755  0.00  0.00     0.033 A 
HETATM    6  C   UNL     1       9.060  12.614  20.919  0.00  0.00     0.011 A 
HETATM    7  N   UNL     1       6.743  10.994  18.628  0.00  0.00    -0.218 NA
HETATM    8  C   UNL     1       5.583  10.346  18.664  0.00  0.00     0.200 A 
HETATM    9  N   UNL     1       4.861  10.160  19.757  0.00  0.00    -0.212 NA
HETATM   10  C   UNL     1       5.382  10.634  20.915  0.00  0.00     0.140 A 
ENDROOT
BRANCH  10  11
HETATM   11  C   UNL     1       4.506  10.395  22.116  0.00  0.00     0.274 C 
HETATM   12  O   UNL     1       4.604   9.353  22.759  0.00  0.00    -0.266 OA
HETATM   13  N   UNL     1       3.592  11.384  22.445  0.00  0.00    -0.338 N 
HETATM   14  C   UNL     1       2.558  11.171  23.457  0.00  0.00     0.165 C 
HETATM   15  C   UNL     1       3.711  12.790  22.061  0.00  0.00     0.165 C 
HETATM   16  C   UNL     1       1.887  12.508  23.551  0.00  0.00    -0.032 A 
HETATM   17  C   UNL     1       0.767  12.880  24.273  0.00  0.00     0.009 A 
HETATM   18  C   UNL     1       2.569  13.443  22.764  0.00  0.00    -0.032 A 
HETATM   19  C   UNL     1       0.344  14.212  24.198  0.00  0.00     0.001 A 
HETATM   20  C   UNL     1       1.039  15.148  23.415  0.00  0.00     0.001 A 
HETATM   21  C   UNL     1       2.166  14.764  22.689  0.00  0.00     0.009 A 
ENDBRANCH  10  11
BRANCH   8  22
HETATM   22  N   UNL     1       5.062   9.895  17.474  0.00  0.00    -0.271 NA
HETATM   23  H   UNL     1       5.347  10.488  16.707  0.00  0.00     0.127 HD
HETATM   24  H   UNL     1       4.080   9.680  17.567  0.00  0.00     0.127 HD
ENDBRANCH   8  22
BRANCH   1  25
HETATM   25  C   UNL     1       9.157  13.012  23.533  0.00  0.00     0.068 C 
HETATM   26  C   UNL     1      10.736  12.991  23.576  0.00  0.00     0.024 C 
HETATM   27  C   UNL     1      10.658  11.637  24.295  0.00  0.00     0.003 C 
HETATM   28  C   UNL     1       9.249  12.025  24.759  0.00  0.00     0.024 C 
BRANCH  25  29
HETATM   29  C   UNL     1       8.505  14.427  23.848  0.00  0.00     0.231 C 
HETATM   30  N   UNL     1       7.266  14.343  24.463  0.00  0.00    -0.360 N 
HETATM   31  H   UNL     1       6.833  13.436  24.570  0.00  0.00     0.162 HD
HETATM   32  O   UNL     1       9.023  15.514  23.588  0.00  0.00    -0.272 OA
BRANCH  30  33
HETATM   33  C   UNL     1       6.494  15.517  24.814  0.00  0.00     0.118 C 
HETATM   34  C   UNL     1       5.523  15.896  23.712  0.00  0.00     0.026 C 
ENDBRANCH  30  33
ENDBRANCH  25  29
ENDBRANCH   1  25
TORSDOF 5
ENDMDL
MODEL 9
REMARK VINA RESULT:    -8.042      2.364      7.328
REMARK INTER + INTRA:         -11.360
REMARK INTER:                 -10.157
REMARK INTRA:                  -1.202
REMARK UNBOUND:                -1.202
REMARK  5 active torsions:
REMARK  status: ('A' for Active; 'I' for Inactive)
REMARK    1  A    between atoms: C_2  and  N_3 
REMARK       I    between atoms: N_3  and  C_4 
REMARK    2  A    between atoms: C_4  and  C_6 
REMARK    3  A    between atoms: C_6  and  C_10 
REMARK    4  A    between atoms: C_17  and  N_18 
REMARK    5  A    between atoms: C_20  and  C_21 
REMARK       I    between atoms: C_21  and  N_23 
ROOT
HETATM    1  C   UNL     1       3.521  12.310  23.680  0.00  0.00    -0.039 A 
HETATM    2  C   UNL     1       4.823  12.337  23.144  0.00  0.00     0.024 A 
HETATM    3  C   UNL     1       5.687  11.205  23.155  0.00  0.00     0.028 A 
HETATM    4  C   UNL     1       5.253  10.014  23.732  0.00  0.00     0.073 A 
HETATM    5  C   UNL     1       3.986   9.981  24.288  0.00  0.00     0.033 A 
HETATM    6  C   UNL     1       3.137  11.096  24.272  0.00  0.00     0.011 A 
HETATM    7  N   UNL     1       6.005   8.908  23.790  0.00  0.00    -0.218 NA
HETATM    8  C   UNL     1       7.217   8.947  23.244  0.00  0.00     0.200 A 
HETATM    9  N   UNL     1       7.759  10.021  22.695  0.00  0.00    -0.212 NA
HETATM   10  C   UNL     1       6.990  11.137  22.659  0.00  0.00     0.140 A 
ENDROOT
BRANCH  10  11
HETATM   11  C   UNL     1       7.672  12.322  22.029  0.00  0.00     0.274 C 
HETATM   12  O   UNL     1       7.533  12.554  20.830  0.00  0.00    -0.266 OA
HETATM   13  N   UNL     1       8.458  13.115  22.849  0.00  0.00    -0.338 N 
HETATM   14  C   UNL     1       9.325  14.162  22.308  0.00  0.00     0.165 C 
HETATM   15  C   UNL     1       8.320  13.208  24.302  0.00  0.00     0.165 C 
HETATM   16  C   UNL     1       9.890  14.811  23.534  0.00  0.00    -0.032 A 
HETATM   17  C   UNL     1      10.853  15.799  23.642  0.00  0.00     0.009 A 
HETATM   18  C   UNL     1       9.291  14.275  24.680  0.00  0.00    -0.032 A 
HETATM   19  C   UNL     1      11.202  16.247  24.921  0.00  0.00     0.001 A 
HETATM   20  C   UNL     1      10.588  15.712  26.066  0.00  0.00     0.001 A 
HETATM   21  C   UNL     1       9.620  14.716  25.948  0.00  0.00     0.009 A 
ENDBRANCH  10  11
BRANCH   8  22
HETATM   22  N   UNL     1       7.988   7.811  23.314  0.00  0.00    -0.271 NA
HETATM   23  H   UNL     1       7.624   7.168  24.004  0.00  0.00     0.127 HD
HETATM   24  H   UNL     1       8.970   8.042  23.355  0.00  0.00     0.127 HD
ENDBRANCH   8  22
BRANCH   1  25
HETATM   25  C   UNL     1       2.543  13.593  23.632  0.00  0.00     0.068 C 
HETATM   26  C   UNL     1       3.194  14.956  23.170  0.00  0.00     0.024 C 
HETATM   27  C   UNL     1       3.410  15.308  24.648  0.00  0.00     0.003 C 
HETATM   28  C   UNL     1       2.265  14.346  24.990  0.00  0.00     0.024 C 
BRANCH  25  29
HETATM   29  C   UNL     1       1.248  13.166  22.815  0.00  0.00     0.231 C 
HETATM   30  N   UNL     1       0.086  13.174  23.571  0.00  0.00    -0.360 N 
HETATM   31  H   UNL     1       0.151  13.339  24.566  0.00  0.00     0.162 HD
HETATM   32  O   UNL     1       1.239  12.856  21.622  0.00  0.00    -0.272 OA
BRANCH  30  33
HETATM   33  C   UNL     1      -1.198  12.795  23.021  0.00  0.00     0.118 C 
HETATM   34  C   UNL     1      -1.951  11.864  23.952  0.00  0.00     0.026 C 
ENDBRANCH  30  33
ENDBRANCH  25  29
ENDBRANCH   1  25
TORSDOF 5
ENDMDL
