MODEL 1
REMARK VINA RESULT:    -6.218      0.000      0.000
REMARK INTER + INTRA:          -9.029
REMARK INTER:                  -7.929
REMARK INTRA:                  -1.100
REMARK UNBOUND:                -0.994
REMARK  5 active torsions:
REMARK  status: ('A' for Active; 'I' for Inactive)
REMARK    1  A    between atoms: N8_1  and  C24_2 
REMARK    2  A    between atoms: N8_1  and  C7_8 
REMARK    3  A    between atoms: C2_13  and  N1_14 
REMARK    4  A    between atoms: N1_14  and  C17_15 
REMARK    5  A    between atoms: C14_16  and  C13_19 
ROOT
ATOM      1  C17 FTA A   1       5.113  18.052  21.123  1.00  0.00     0.142 C 
ATOM      2  C14 FTA A   1       4.451  17.254  20.262  1.00  0.00     0.158 C 
ATOM      3  C18 FTA A   1       3.041  16.988  20.454  1.00  0.00     0.069 C 
ATOM      4  N21 FTA A   1       1.924  16.816  20.765  1.00  0.00    -0.197 NA
ENDROOT
BRANCH   2   5
ATOM      5  C13 FTA A   1       5.174  16.665  19.111  1.00  0.00     0.197 A 
ATOM      6  N15 FTA A   1       4.720  15.630  18.297  1.00  0.00    -0.093 NA
ATOM      7  N19 FTA A   1       5.720  15.356  17.373  1.00  0.00    -0.231 N 
ATOM      8  N20 FTA A   1       6.794  16.204  17.600  1.00  0.00    -0.017 NA
ATOM      9  H15 FTA A   1       5.672  14.637  16.637  1.00  0.00     0.200 HD
ATOM     10  N16 FTA A   1       6.453  17.025  18.670  1.00  0.00    -0.090 NA
ENDBRANCH   2   5
BRANCH   1  11
ATOM     11  N1  FTA A   1       6.244  17.596  21.694  1.00  0.00    -0.389 N 
ATOM     12  H11 FTA A   1       6.243  16.628  22.047  1.00  0.00     0.159 HD
BRANCH  11  13
ATOM     13  C2  FTA A   1       7.440  18.349  21.848  1.00  0.00     0.028 A 
ATOM     14  C4  FTA A   1       8.684  17.852  21.464  1.00  0.00     0.031 A 
ATOM     15  C6  FTA A   1       9.840  18.542  21.851  1.00  0.00     0.031 A 
ATOM     16  C7  FTA A   1       9.788  19.709  22.609  1.00  0.00     0.032 A 
ATOM     17  C5  FTA A   1       8.544  20.204  22.961  1.00  0.00     0.031 A 
ATOM     18  C3  FTA A   1       7.386  19.527  22.599  1.00  0.00     0.031 A 
BRANCH  16  19
ATOM     19  N8  FTA A   1      10.938  20.305  23.186  1.00  0.00    -0.356 N 
ATOM     20  H1  FTA A   1      11.544  20.861  22.565  1.00  0.00     0.166 HD
BRANCH  19  21
ATOM     21  C24 FTA A   1      11.326  20.197  24.556  1.00  0.00     0.032 A 
ATOM     22  C26 FTA A   1      11.675  18.990  25.113  1.00  0.00     0.029 A 
ATOM     23  C28 FTA A   1      11.872  18.923  26.479  1.00  0.00     0.002 A 
ATOM     24  C30 FTA A   1      11.763  20.032  27.300  1.00  0.00     0.000 A 
ATOM     25  C29 FTA A   1      11.454  21.249  26.752  1.00  0.00     0.002 A 
ATOM     26  C27 FTA A   1      11.249  21.318  25.370  1.00  0.00     0.029 A 
ENDBRANCH  19  21
ENDBRANCH  16  19
ENDBRANCH  11  13
ENDBRANCH   1  11
TORSDOF 5
ENDMDL
MODEL 2
REMARK VINA RESULT:    -6.129      1.422      2.974
REMARK INTER + INTRA:          -8.915
REMARK INTER:                  -7.817
REMARK INTRA:                  -1.098
REMARK UNBOUND:                -0.994
REMARK  5 active torsions:
REMARK  status: ('A' for Active; 'I' for Inactive)
REMARK    1  A    between atoms: N8_1  and  C24_2 
REMARK    2  A    between atoms: N8_1  and  C7_8 
REMARK    3  A    between atoms: C2_13  and  N1_14 
REMARK    4  A    between atoms: N1_14  and  C17_15 
REMARK    5  A    between atoms: C14_16  and  C13_19 
ROOT
ATOM      1  C17 FTA A   1       6.105  17.397  19.812  1.00  0.00     0.142 C 
ATOM      2  C14 FTA A   1       4.813  17.103  20.060  1.00  0.00     0.158 C 
ATOM      3  C18 FTA A   1       4.016  16.427  19.060  1.00  0.00     0.069 C 
ATOM      4  N21 FTA A   1       3.480  15.932  18.141  1.00  0.00    -0.197 NA
ENDROOT
BRANCH   2   5
ATOM      5  C13 FTA A   1       4.223  17.463  21.370  1.00  0.00     0.197 A 
ATOM      6  N15 FTA A   1       4.915  17.944  22.479  1.00  0.00    -0.093 NA
ATOM      7  N19 FTA A   1       3.995  18.109  23.506  1.00  0.00    -0.231 N 
ATOM      8  N20 FTA A   1       2.738  17.734  23.056  1.00  0.00    -0.017 NA
ATOM      9  H15 FTA A   1       4.212  18.454  24.453  1.00  0.00     0.200 HD
ATOM     10  N16 FTA A   1       2.875  17.344  21.727  1.00  0.00    -0.090 NA
ENDBRANCH   2   5
BRANCH   1  11
ATOM     11  N1  FTA A   1       6.528  18.665  19.981  1.00  0.00    -0.389 N 
ATOM     12  H11 FTA A   1       5.883  19.422  19.712  1.00  0.00     0.159 HD
BRANCH  11  13
ATOM     13  C2  FTA A   1       7.797  19.038  20.503  1.00  0.00     0.028 A 
ATOM     14  C4  FTA A   1       8.710  18.097  20.975  1.00  0.00     0.031 A 
ATOM     15  C6  FTA A   1       9.835  18.539  21.683  1.00  0.00     0.031 A 
ATOM     16  C7  FTA A   1      10.071  19.888  21.932  1.00  0.00     0.032 A 
ATOM     17  C5  FTA A   1       9.168  20.811  21.435  1.00  0.00     0.031 A 
ATOM     18  C3  FTA A   1       8.039  20.393  20.742  1.00  0.00     0.031 A 
BRANCH  16  19
ATOM     19  N8  FTA A   1      11.081  20.343  22.818  1.00  0.00    -0.356 N 
ATOM     20  H1  FTA A   1      11.875  20.854  22.407  1.00  0.00     0.166 HD
BRANCH  19  21
ATOM     21  C24 FTA A   1      11.088  20.150  24.233  1.00  0.00     0.032 A 
ATOM     22  C26 FTA A   1      10.484  21.044  25.085  1.00  0.00     0.029 A 
ATOM     23  C28 FTA A   1      10.674  20.894  26.445  1.00  0.00     0.002 A 
ATOM     24  C30 FTA A   1      11.423  19.859  26.981  1.00  0.00     0.000 A 
ATOM     25  C29 FTA A   1      11.997  18.940  26.145  1.00  0.00     0.002 A 
ATOM     26  C27 FTA A   1      11.810  19.092  24.766  1.00  0.00     0.029 A 
ENDBRANCH  19  21
ENDBRANCH  16  19
ENDBRANCH  11  13
ENDBRANCH   1  11
TORSDOF 5
ENDMDL
MODEL 3
REMARK VINA RESULT:    -6.006      1.680      2.960
REMARK INTER + INTRA:          -8.755
REMARK INTER:                  -7.955
REMARK INTRA:                  -0.800
REMARK UNBOUND:                -0.994
REMARK  5 active torsions:
REMARK  status: ('A' for Active; 'I' for Inactive)
REMARK    1  A    between atoms: N8_1  and  C24_2 
REMARK    2  A    between atoms: N8_1  and  C7_8 
REMARK    3  A    between atoms: C2_13  and  N1_14 
REMARK    4  A    between atoms: N1_14  and  C17_15 
REMARK    5  A    between atoms: C14_16  and  C13_19 
ROOT
ATOM      1  C17 FTA A   1       5.914  17.304  18.332  1.00  0.00     0.142 C 
ATOM      2  C14 FTA A   1       4.587  17.085  18.243  1.00  0.00     0.158 C 
ATOM      3  C18 FTA A   1       3.983  16.787  16.962  1.00  0.00     0.069 C 
ATOM      4  N21 FTA A   1       3.626  16.616  15.858  1.00  0.00    -0.197 NA
ENDROOT
BRANCH   2   5
ATOM      5  C13 FTA A   1       3.757  17.135  19.468  1.00  0.00     0.197 A 
ATOM      6  N15 FTA A   1       4.200  17.461  20.748  1.00  0.00    -0.093 NA
ATOM      7  N19 FTA A   1       3.115  17.343  21.608  1.00  0.00    -0.231 N 
ATOM      8  N20 FTA A   1       2.001  16.945  20.884  1.00  0.00    -0.017 NA
ATOM      9  H15 FTA A   1       3.135  17.522  22.622  1.00  0.00     0.200 HD
ATOM     10  N16 FTA A   1       2.394  16.826  19.554  1.00  0.00    -0.090 NA
ENDBRANCH   2   5
BRANCH   1  11
ATOM     11  N1  FTA A   1       6.350  18.429  18.930  1.00  0.00    -0.389 N 
ATOM     12  H11 FTA A   1       5.911  19.318  18.648  1.00  0.00     0.159 HD
BRANCH  11  13
ATOM     13  C2  FTA A   1       7.368  18.484  19.920  1.00  0.00     0.028 A 
ATOM     14  C4  FTA A   1       8.607  17.873  19.744  1.00  0.00     0.031 A 
ATOM     15  C6  FTA A   1       9.475  17.766  20.839  1.00  0.00     0.031 A 
ATOM     16  C7  FTA A   1       9.137  18.250  22.101  1.00  0.00     0.032 A 
ATOM     17  C5  FTA A   1       7.913  18.877  22.253  1.00  0.00     0.031 A 
ATOM     18  C3  FTA A   1       7.033  18.981  21.183  1.00  0.00     0.031 A 
BRANCH  16  19
ATOM     19  N8  FTA A   1       9.901  17.970  23.262  1.00  0.00    -0.356 N 
ATOM     20  H1  FTA A   1       9.763  17.051  23.708  1.00  0.00     0.166 HD
BRANCH  19  21
ATOM     21  C24 FTA A   1      10.845  18.856  23.864  1.00  0.00     0.032 A 
ATOM     22  C26 FTA A   1      11.379  18.605  25.106  1.00  0.00     0.029 A 
ATOM     23  C28 FTA A   1      12.150  19.582  25.705  1.00  0.00     0.002 A 
ATOM     24  C30 FTA A   1      12.431  20.789  25.088  1.00  0.00     0.000 A 
ATOM     25  C29 FTA A   1      11.938  21.036  23.834  1.00  0.00     0.002 A 
ATOM     26  C27 FTA A   1      11.153  20.049  23.227  1.00  0.00     0.029 A 
ENDBRANCH  19  21
ENDBRANCH  16  19
ENDBRANCH  11  13
ENDBRANCH   1  11
TORSDOF 5
ENDMDL
MODEL 4
REMARK VINA RESULT:    -5.953      3.748      6.034
REMARK INTER + INTRA:          -8.687
REMARK INTER:                  -7.665
REMARK INTRA:                  -1.022
REMARK UNBOUND:                -0.994
REMARK  5 active torsions:
REMARK  status: ('A' for Active; 'I' for Inactive)
REMARK    1  A    between atoms: N8_1  and  C24_2 
REMARK    2  A    between atoms: N8_1  and  C7_8 
REMARK    3  A    between atoms: C2_13  and  N1_14 
REMARK    4  A    between atoms: N1_14  and  C17_15 
REMARK    5  A    between atoms: C14_16  and  C13_19 
ROOT
ATOM      1  C17 FTA A   1       6.199  18.852  22.503  1.00  0.00     0.142 C 
ATOM      2  C14 FTA A   1       4.937  18.547  22.864  1.00  0.00     0.158 C 
ATOM      3  C18 FTA A   1       4.437  18.938  24.164  1.00  0.00     0.069 C 
ATOM      4  N21 FTA A   1       4.189  19.265  25.263  1.00  0.00    -0.197 NA
ENDROOT
BRANCH   2   5
ATOM      5  C13 FTA A   1       4.063  17.824  21.912  1.00  0.00     0.197 A 
ATOM      6  N15 FTA A   1       4.399  17.438  20.617  1.00  0.00    -0.093 NA
ATOM      7  N19 FTA A   1       3.282  16.831  20.058  1.00  0.00    -0.231 N 
ATOM      8  N20 FTA A   1       2.250  16.835  20.986  1.00  0.00    -0.017 NA
ATOM      9  H15 FTA A   1       3.228  16.440  19.106  1.00  0.00     0.200 HD
ATOM     10  N16 FTA A   1       2.736  17.440  22.140  1.00  0.00    -0.090 NA
ENDBRANCH   2   5
BRANCH   1  11
ATOM     11  N1  FTA A   1       7.006  17.869  22.060  1.00  0.00    -0.389 N 
ATOM     12  H11 FTA A   1       6.770  16.902  22.329  1.00  0.00     0.159 HD
BRANCH  11  13
ATOM     13  C2  FTA A   1       8.157  18.062  21.249  1.00  0.00     0.028 A 
ATOM     14  C4  FTA A   1       9.318  18.654  21.740  1.00  0.00     0.031 A 
ATOM     15  C6  FTA A   1      10.326  19.024  20.839  1.00  0.00     0.031 A 
ATOM     16  C7  FTA A   1      10.204  18.821  19.467  1.00  0.00     0.032 A 
ATOM     17  C5  FTA A   1       9.055  18.209  18.998  1.00  0.00     0.031 A 
ATOM     18  C3  FTA A   1       8.038  17.847  19.873  1.00  0.00     0.031 A 
BRANCH  16  19
ATOM     19  N8  FTA A   1      11.108  19.371  18.524  1.00  0.00    -0.356 N 
ATOM     20  H1  FTA A   1      11.414  20.344  18.674  1.00  0.00     0.166 HD
BRANCH  19  21
ATOM     21  C24 FTA A   1      11.631  18.689  17.384  1.00  0.00     0.032 A 
ATOM     22  C26 FTA A   1      12.494  17.627  17.513  1.00  0.00     0.029 A 
ATOM     23  C28 FTA A   1      13.098  17.122  16.376  1.00  0.00     0.002 A 
ATOM     24  C30 FTA A   1      12.840  17.626  15.112  1.00  0.00     0.000 A 
ATOM     25  C29 FTA A   1      11.952  18.658  14.967  1.00  0.00     0.002 A 
ATOM     26  C27 FTA A   1      11.342  19.174  16.116  1.00  0.00     0.029 A 
ENDBRANCH  19  21
ENDBRANCH  16  19
ENDBRANCH  11  13
ENDBRANCH   1  11
TORSDOF 5
ENDMDL
MODEL 5
REMARK VINA RESULT:    -5.920      5.635      6.849
REMARK INTER + INTRA:          -8.645
REMARK INTER:                  -7.837
REMARK INTRA:                  -0.808
REMARK UNBOUND:                -0.994
REMARK  5 active torsions:
REMARK  status: ('A' for Active; 'I' for Inactive)
REMARK    1  A    between atoms: N8_1  and  C24_2 
REMARK    2  A    between atoms: N8_1  and  C7_8 
REMARK    3  A    between atoms: C2_13  and  N1_14 
REMARK    4  A    between atoms: N1_14  and  C17_15 
REMARK    5  A    between atoms: C14_16  and  C13_19 
ROOT
ATOM      1  C17 FTA A   1       3.523  16.215  18.101  1.00  0.00     0.142 C 
ATOM      2  C14 FTA A   1       3.151  17.403  18.617  1.00  0.00     0.158 C 
ATOM      3  C18 FTA A   1       2.684  18.461  17.747  1.00  0.00     0.069 C 
ATOM      4  N21 FTA A   1       2.384  19.238  16.923  1.00  0.00    -0.197 NA
ENDROOT
BRANCH   2   5
ATOM      5  C13 FTA A   1       3.209  17.610  20.082  1.00  0.00     0.197 A 
ATOM      6  N15 FTA A   1       4.122  18.412  20.764  1.00  0.00    -0.093 NA
ATOM      7  N19 FTA A   1       3.856  18.288  22.121  1.00  0.00    -0.231 N 
ATOM      8  N20 FTA A   1       2.790  17.417  22.298  1.00  0.00    -0.017 NA
ATOM      9  H15 FTA A   1       4.368  18.766  22.877  1.00  0.00     0.200 HD
ATOM     10  N16 FTA A   1       2.380  17.004  21.034  1.00  0.00    -0.090 NA
ENDBRANCH   2   5
BRANCH   1  11
ATOM     11  N1  FTA A   1       4.735  15.719  18.415  1.00  0.00    -0.389 N 
ATOM     12  H11 FTA A   1       4.773  14.960  19.111  1.00  0.00     0.159 HD
BRANCH  11  13
ATOM     13  C2  FTA A   1       5.966  16.162  17.859  1.00  0.00     0.028 A 
ATOM     14  C4  FTA A   1       6.872  16.932  18.584  1.00  0.00     0.031 A 
ATOM     15  C6  FTA A   1       7.949  17.526  17.913  1.00  0.00     0.031 A 
ATOM     16  C7  FTA A   1       8.142  17.374  16.542  1.00  0.00     0.032 A 
ATOM     17  C5  FTA A   1       7.247  16.585  15.840  1.00  0.00     0.031 A 
ATOM     18  C3  FTA A   1       6.165  15.999  16.485  1.00  0.00     0.031 A 
BRANCH  16  19
ATOM     19  N8  FTA A   1       9.094  18.129  15.810  1.00  0.00    -0.356 N 
ATOM     20  H1  FTA A   1       8.744  18.697  15.025  1.00  0.00     0.166 HD
BRANCH  19  21
ATOM     21  C24 FTA A   1      10.497  18.166  16.072  1.00  0.00     0.032 A 
ATOM     22  C26 FTA A   1      11.314  19.105  15.487  1.00  0.00     0.029 A 
ATOM     23  C28 FTA A   1      12.682  18.982  15.644  1.00  0.00     0.002 A 
ATOM     24  C30 FTA A   1      13.256  17.968  16.391  1.00  0.00     0.000 A 
ATOM     25  C29 FTA A   1      12.451  17.048  17.010  1.00  0.00     0.002 A 
ATOM     26  C27 FTA A   1      11.065  17.168  16.851  1.00  0.00     0.029 A 
ENDBRANCH  19  21
ENDBRANCH  16  19
ENDBRANCH  11  13
ENDBRANCH   1  11
TORSDOF 5
ENDMDL
MODEL 6
REMARK VINA RESULT:    -5.873      1.949      2.479
REMARK INTER + INTRA:          -8.584
REMARK INTER:                  -7.638
REMARK INTRA:                  -0.947
REMARK UNBOUND:                -0.994
REMARK  5 active torsions:
REMARK  status: ('A' for Active; 'I' for Inactive)
REMARK    1  A    between atoms: N8_1  and  C24_2 
REMARK    2  A    between atoms: N8_1  and  C7_8 
REMARK    3  A    between atoms: C2_13  and  N1_14 
REMARK    4  A    between atoms: N1_14  and  C17_15 
REMARK    5  A    between atoms: C14_16  and  C13_19 
ROOT
ATOM      1  C17 FTA A   1       4.497  18.621  19.394  1.00  0.00     0.142 C 
ATOM      2  C14 FTA A   1       3.525  17.823  18.909  1.00  0.00     0.158 C 
ATOM      3  C18 FTA A   1       2.576  17.205  19.808  1.00  0.00     0.069 C 
ATOM      4  N21 FTA A   1       1.918  16.728  20.654  1.00  0.00    -0.197 NA
ENDROOT
BRANCH   2   5
ATOM      5  C13 FTA A   1       3.428  17.599  17.448  1.00  0.00     0.197 A 
ATOM      6  N15 FTA A   1       3.076  16.406  16.821  1.00  0.00    -0.093 NA
ATOM      7  N19 FTA A   1       3.153  16.616  15.450  1.00  0.00    -0.231 N 
ATOM      8  N20 FTA A   1       3.551  17.924  15.212  1.00  0.00    -0.017 NA
ATOM      9  H15 FTA A   1       2.948  15.913  14.726  1.00  0.00     0.200 HD
ATOM     10  N16 FTA A   1       3.711  18.538  16.449  1.00  0.00    -0.090 NA
ENDBRANCH   2   5
BRANCH   1  11
ATOM     11  N1  FTA A   1       5.776  18.369  19.054  1.00  0.00    -0.389 N 
ATOM     12  H11 FTA A   1       5.967  18.118  18.073  1.00  0.00     0.159 HD
BRANCH  11  13
ATOM     13  C2  FTA A   1       6.882  18.425  19.945  1.00  0.00     0.028 A 
ATOM     14  C4  FTA A   1       8.133  17.914  19.607  1.00  0.00     0.031 A 
ATOM     15  C6  FTA A   1       9.110  17.791  20.605  1.00  0.00     0.031 A 
ATOM     16  C7  FTA A   1       8.869  18.162  21.925  1.00  0.00     0.032 A 
ATOM     17  C5  FTA A   1       7.630  18.691  22.240  1.00  0.00     0.031 A 
ATOM     18  C3  FTA A   1       6.644  18.809  21.268  1.00  0.00     0.031 A 
BRANCH  16  19
ATOM     19  N8  FTA A   1       9.761  17.855  22.985  1.00  0.00    -0.356 N 
ATOM     20  H1  FTA A   1       9.813  16.872  23.288  1.00  0.00     0.166 HD
BRANCH  19  21
ATOM     21  C24 FTA A   1      10.591  18.796  23.666  1.00  0.00     0.032 A 
ATOM     22  C26 FTA A   1      10.974  19.977  23.076  1.00  0.00     0.029 A 
ATOM     23  C28 FTA A   1      11.915  20.762  23.716  1.00  0.00     0.002 A 
ATOM     24  C30 FTA A   1      12.459  20.419  24.942  1.00  0.00     0.000 A 
ATOM     25  C29 FTA A   1      12.057  19.264  25.557  1.00  0.00     0.002 A 
ATOM     26  C27 FTA A   1      11.108  18.465  24.910  1.00  0.00     0.029 A 
ENDBRANCH  19  21
ENDBRANCH  16  19
ENDBRANCH  11  13
ENDBRANCH   1  11
TORSDOF 5
ENDMDL
MODEL 7
REMARK VINA RESULT:    -5.810      4.117     10.247
REMARK INTER + INTRA:          -8.502
REMARK INTER:                  -7.505
REMARK INTRA:                  -0.997
REMARK UNBOUND:                -0.994
REMARK  5 active torsions:
REMARK  status: ('A' for Active; 'I' for Inactive)
REMARK    1  A    between atoms: N8_1  and  C24_2 
REMARK    2  A    between atoms: N8_1  and  C7_8 
REMARK    3  A    between atoms: C2_13  and  N1_14 
REMARK    4  A    between atoms: N1_14  and  C17_15 
REMARK    5  A    between atoms: C14_16  and  C13_19 
ROOT
ATOM      1  C17 FTA A   1       6.171  18.491  20.355  1.00  0.00     0.142 C 
ATOM      2  C14 FTA A   1       6.108  18.696  21.686  1.00  0.00     0.158 C 
ATOM      3  C18 FTA A   1       7.275  19.154  22.408  1.00  0.00     0.069 C 
ATOM      4  N21 FTA A   1       8.308  19.468  22.866  1.00  0.00    -0.197 NA
ENDROOT
BRANCH   2   5
ATOM      5  C13 FTA A   1       4.831  18.463  22.399  1.00  0.00     0.197 A 
ATOM      6  N15 FTA A   1       4.497  18.939  23.665  1.00  0.00    -0.093 NA
ATOM      7  N19 FTA A   1       3.233  18.454  23.974  1.00  0.00    -0.231 N 
ATOM      8  N20 FTA A   1       2.772  17.679  22.919  1.00  0.00    -0.017 NA
ATOM      9  H15 FTA A   1       2.719  18.639  24.847  1.00  0.00     0.200 HD
ATOM     10  N16 FTA A   1       3.757  17.693  21.937  1.00  0.00    -0.090 NA
ENDBRANCH   2   5
BRANCH   1  11
ATOM     11  N1  FTA A   1       5.775  17.303  19.859  1.00  0.00    -0.389 N 
ATOM     12  H11 FTA A   1       5.993  16.461  20.411  1.00  0.00     0.159 HD
BRANCH  11  13
ATOM     13  C2  FTA A   1       5.079  17.123  18.633  1.00  0.00     0.028 A 
ATOM     14  C4  FTA A   1       5.310  17.932  17.524  1.00  0.00     0.031 A 
ATOM     15  C6  FTA A   1       4.436  17.854  16.431  1.00  0.00     0.031 A 
ATOM     16  C7  FTA A   1       3.342  16.993  16.419  1.00  0.00     0.032 A 
ATOM     17  C5  FTA A   1       3.141  16.177  17.518  1.00  0.00     0.031 A 
ATOM     18  C3  FTA A   1       3.988  16.249  18.617  1.00  0.00     0.031 A 
BRANCH  16  19
ATOM     19  N8  FTA A   1       2.332  17.045  15.424  1.00  0.00    -0.356 N 
ATOM     20  H1  FTA A   1       1.709  17.866  15.425  1.00  0.00     0.166 HD
BRANCH  19  21
ATOM     21  C24 FTA A   1       2.108  16.055  14.420  1.00  0.00     0.032 A 
ATOM     22  C26 FTA A   1       2.867  16.005  13.275  1.00  0.00     0.029 A 
ATOM     23  C28 FTA A   1       2.490  15.136  12.268  1.00  0.00     0.002 A 
ATOM     24  C30 FTA A   1       1.398  14.293  12.385  1.00  0.00     0.000 A 
ATOM     25  C29 FTA A   1       0.657  14.306  13.536  1.00  0.00     0.002 A 
ATOM     26  C27 FTA A   1       1.034  15.187  14.556  1.00  0.00     0.029 A 
ENDBRANCH  19  21
ENDBRANCH  16  19
ENDBRANCH  11  13
ENDBRANCH   1  11
TORSDOF 5
ENDMDL
MODEL 8
REMARK VINA RESULT:    -5.737      4.702     10.079
REMARK INTER + INTRA:          -8.409
REMARK INTER:                  -7.382
REMARK INTRA:                  -1.027
REMARK UNBOUND:                -0.994
REMARK  5 active torsions:
REMARK  status: ('A' for Active; 'I' for Inactive)
REMARK    1  A    between atoms: N8_1  and  C24_2 
REMARK    2  A    between atoms: N8_1  and  C7_8 
REMARK    3  A    between atoms: C2_13  and  N1_14 
REMARK    4  A    between atoms: N1_14  and  C17_15 
REMARK    5  A    between atoms: C14_16  and  C13_19 
ROOT
ATOM      1  C17 FTA A   1       5.212  16.348  19.477  1.00  0.00     0.142 C 
ATOM      2  C14 FTA A   1       4.594  16.988  20.490  1.00  0.00     0.158 C 
ATOM      3  C18 FTA A   1       3.152  16.943  20.606  1.00  0.00     0.069 C 
ATOM      4  N21 FTA A   1       1.983  16.868  20.541  1.00  0.00    -0.197 NA
ENDROOT
BRANCH   2   5
ATOM      5  C13 FTA A   1       5.402  17.723  21.489  1.00  0.00     0.197 A 
ATOM      6  N15 FTA A   1       4.969  18.156  22.740  1.00  0.00    -0.093 NA
ATOM      7  N19 FTA A   1       6.022  18.840  23.334  1.00  0.00    -0.231 N 
ATOM      8  N20 FTA A   1       7.107  18.843  22.470  1.00  0.00    -0.017 NA
ATOM      9  H15 FTA A   1       6.000  19.276  24.267  1.00  0.00     0.200 HD
ATOM     10  N16 FTA A   1       6.729  18.141  21.330  1.00  0.00    -0.090 NA
ENDBRANCH   2   5
BRANCH   1  11
ATOM     11  N1  FTA A   1       6.074  17.035  18.703  1.00  0.00    -0.389 N 
ATOM     12  H11 FTA A   1       6.876  17.485  19.168  1.00  0.00     0.159 HD
BRANCH  11  13
ATOM     13  C2  FTA A   1       5.963  17.185  17.294  1.00  0.00     0.028 A 
ATOM     14  C4  FTA A   1       5.043  18.053  16.711  1.00  0.00     0.031 A 
ATOM     15  C6  FTA A   1       4.825  17.984  15.329  1.00  0.00     0.031 A 
ATOM     16  C7  FTA A   1       5.496  17.074  14.518  1.00  0.00     0.032 A 
ATOM     17  C5  FTA A   1       6.425  16.235  15.108  1.00  0.00     0.031 A 
ATOM     18  C3  FTA A   1       6.647  16.278  16.479  1.00  0.00     0.031 A 
BRANCH  16  19
ATOM     19  N8  FTA A   1       5.144  16.843  13.163  1.00  0.00    -0.356 N 
ATOM     20  H1  FTA A   1       5.557  17.467  12.455  1.00  0.00     0.166 HD
BRANCH  19  21
ATOM     21  C24 FTA A   1       4.264  15.818  12.701  1.00  0.00     0.032 A 
ATOM     22  C26 FTA A   1       2.919  15.840  12.987  1.00  0.00     0.029 A 
ATOM     23  C28 FTA A   1       2.154  14.736  12.661  1.00  0.00     0.002 A 
ATOM     24  C30 FTA A   1       2.686  13.624  12.030  1.00  0.00     0.000 A 
ATOM     25  C29 FTA A   1       4.017  13.606  11.706  1.00  0.00     0.002 A 
ATOM     26  C27 FTA A   1       4.794  14.721  12.038  1.00  0.00     0.029 A 
ENDBRANCH  19  21
ENDBRANCH  16  19
ENDBRANCH  11  13
ENDBRANCH   1  11
TORSDOF 5
ENDMDL
MODEL 9
REMARK VINA RESULT:    -5.672      2.207      8.687
REMARK INTER + INTRA:          -8.325
REMARK INTER:                  -7.331
REMARK INTRA:                  -0.994
REMARK UNBOUND:                -0.994
REMARK  5 active torsions:
REMARK  status: ('A' for Active; 'I' for Inactive)
REMARK    1  A    between atoms: N8_1  and  C24_2 
REMARK    2  A    between atoms: N8_1  and  C7_8 
REMARK    3  A    between atoms: C2_13  and  N1_14 
REMARK    4  A    between atoms: N1_14  and  C17_15 
REMARK    5  A    between atoms: C14_16  and  C13_19 
ROOT
ATOM      1  C17 FTA A   1      10.516  18.302  23.985  1.00  0.00     0.142 C 
ATOM      2  C14 FTA A   1      11.422  19.114  24.566  1.00  0.00     0.158 C 
ATOM      3  C18 FTA A   1      11.886  18.842  25.910  1.00  0.00     0.069 C 
ATOM      4  N21 FTA A   1      12.126  18.534  27.016  1.00  0.00    -0.197 NA
ENDROOT
BRANCH   2   5
ATOM      5  C13 FTA A   1      11.948  20.275  23.813  1.00  0.00     0.197 A 
ATOM      6  N15 FTA A   1      13.178  20.897  24.015  1.00  0.00    -0.093 NA
ATOM      7  N19 FTA A   1      13.255  21.967  23.132  1.00  0.00    -0.231 N 
ATOM      8  N20 FTA A   1      12.089  22.023  22.383  1.00  0.00    -0.017 NA
ATOM      9  H15 FTA A   1      14.051  22.615  23.047  1.00  0.00     0.200 HD
ATOM     10  N16 FTA A   1      11.281  20.969  22.796  1.00  0.00    -0.090 NA
ENDBRANCH   2   5
BRANCH   1  11
ATOM     11  N1  FTA A   1       9.396  18.841  23.466  1.00  0.00    -0.389 N 
ATOM     12  H11 FTA A   1       8.959  19.618  23.982  1.00  0.00     0.159 HD
BRANCH  11  13
ATOM     13  C2  FTA A   1       8.772  18.420  22.260  1.00  0.00     0.028 A 
ATOM     14  C4  FTA A   1       9.505  17.977  21.162  1.00  0.00     0.031 A 
ATOM     15  C6  FTA A   1       8.851  17.798  19.935  1.00  0.00     0.031 A 
ATOM     16  C7  FTA A   1       7.491  18.052  19.778  1.00  0.00     0.032 A 
ATOM     17  C5  FTA A   1       6.772  18.467  20.884  1.00  0.00     0.031 A 
ATOM     18  C3  FTA A   1       7.405  18.663  22.106  1.00  0.00     0.031 A 
BRANCH  16  19
ATOM     19  N8  FTA A   1       6.856  18.080  18.510  1.00  0.00    -0.356 N 
ATOM     20  H1  FTA A   1       7.328  18.600  17.757  1.00  0.00     0.166 HD
BRANCH  19  21
ATOM     21  C24 FTA A   1       5.615  17.448  18.193  1.00  0.00     0.032 A 
ATOM     22  C26 FTA A   1       5.373  16.134  18.516  1.00  0.00     0.029 A 
ATOM     23  C28 FTA A   1       4.228  15.533  18.031  1.00  0.00     0.002 A 
ATOM     24  C30 FTA A   1       3.301  16.213  17.259  1.00  0.00     0.000 A 
ATOM     25  C29 FTA A   1       3.512  17.533  16.962  1.00  0.00     0.002 A 
ATOM     26  C27 FTA A   1       4.674  18.144  17.449  1.00  0.00     0.029 A 
ENDBRANCH  19  21
ENDBRANCH  16  19
ENDBRANCH  11  13
ENDBRANCH   1  11
TORSDOF 5
ENDMDL
