MODEL 1
REMARK VINA RESULT:    -7.915      0.000      0.000
REMARK INTER + INTRA:         -11.150
REMARK INTER:                 -10.394
REMARK INTRA:                  -0.756
REMARK UNBOUND:                -0.691
REMARK  6 active torsions:
REMARK  status: ('A' for Active; 'I' for Inactive)
REMARK    1  A    between atoms: C_2  and  C_3 
REMARK    2  A    between atoms: C_3  and  C_4 
REMARK    3  A    between atoms: C_11  and  C_15 
REMARK    4  A    between atoms: C_12  and  O_14 
REMARK       I    between atoms: C_15  and  N_17 
REMARK    5  A    between atoms: N_17  and  C_19 
REMARK    6  A    between atoms: C_22  and  N_25 
ROOT
HETATM    1  C   UNL     1      -2.805  12.920  23.435  0.00  0.00     0.260 C 
HETATM    2  O   UNL     1      -2.990  11.790  22.970  0.00  0.00    -0.267 OA
HETATM    3  N   UNL     1      -2.344  13.140  24.753  0.00  0.00    -0.318 N 
HETATM    4  C   UNL     1      -2.258  14.450  25.401  0.00  0.00     0.159 C 
ENDROOT
BRANCH   1   5
HETATM    5  C   UNL     1      -3.119  14.019  22.471  0.00  0.00     0.066 A 
HETATM    6  C   UNL     1      -2.006  14.803  22.076  0.00  0.00     0.035 A 
HETATM    7  C   UNL     1      -2.141  15.803  21.089  0.00  0.00     0.019 A 
HETATM    8  C   UNL     1      -1.281  16.679  20.372  0.00  0.00     0.067 A 
HETATM    9  C   UNL     1      -3.408  16.047  20.575  0.00  0.00     0.065 A 
HETATM   10  N   UNL     1      -1.967  17.447  19.509  0.00  0.00    -0.178 NA
HETATM   11  N   UNL     1      -3.241  17.063  19.672  0.00  0.00    -0.277 N 
HETATM   12  H   UNL     1      -3.952  17.508  19.104  0.00  0.00     0.189 HD
HETATM   13  C   UNL     1      -4.534  15.307  20.935  0.00  0.00     0.069 A 
HETATM   14  C   UNL     1      -4.345  14.242  21.832  0.00  0.00     0.083 A 
BRANCH   8  15
HETATM   15  C   UNL     1       0.209  16.775  20.422  0.00  0.00     0.062 C 
BRANCH  15  16
HETATM   16  C   UNL     1       0.735  17.072  21.828  0.00  0.00     0.002 C 
HETATM   17  C   UNL     1       2.256  17.066  21.873  0.00  0.00     0.005 C 
ENDBRANCH  15  16
ENDBRANCH   8  15
BRANCH  14  18
HETATM   18  O   UNL     1      -5.420  13.403  21.936  0.00  0.00    -0.360 OA
HETATM   19  H   UNL     1      -5.503  12.934  21.085  0.00  0.00     0.217 HD
ENDBRANCH  14  18
ENDBRANCH   1   5
BRANCH   3  20
HETATM   20  C   UNL     1      -1.936  12.012  25.560  0.00  0.00     0.037 A 
HETATM   21  C   UNL     1      -2.734  11.539  26.608  0.00  0.00     0.032 A 
HETATM   22  C   UNL     1      -2.336  10.452  27.404  0.00  0.00     0.031 A 
HETATM   23  C   UNL     1      -1.123   9.794  27.197  0.00  0.00     0.030 A 
HETATM   24  C   UNL     1      -0.346  10.251  26.122  0.00  0.00     0.031 A 
HETATM   25  C   UNL     1      -0.745  11.325  25.309  0.00  0.00     0.032 A 
BRANCH  23  26
HETATM   26  N   UNL     1      -0.717   8.713  27.949  0.00  0.00    -0.377 N 
HETATM   27  C   UNL     1      -0.043   8.847  29.249  0.00  0.00     0.149 C 
HETATM   28  C   UNL     1      -0.522   7.700  30.160  0.00  0.00     0.187 C 
HETATM   29  O   UNL     1      -0.296   6.407  29.567  0.00  0.00    -0.388 OA
HETATM   30  C   UNL     1      -0.970   6.310  28.299  0.00  0.00     0.187 C 
HETATM   31  C   UNL     1      -0.487   7.397  27.326  0.00  0.00     0.149 C 
ENDBRANCH  23  26
ENDBRANCH   3  20
TORSDOF 6
ENDMDL
MODEL 2
REMARK VINA RESULT:    -7.821      0.474      1.343
REMARK INTER + INTRA:         -11.027
REMARK INTER:                 -10.292
REMARK INTRA:                  -0.735
REMARK UNBOUND:                -0.691
REMARK  6 active torsions:
REMARK  status: ('A' for Active; 'I' for Inactive)
REMARK    1  A    between atoms: C_2  and  C_3 
REMARK    2  A    between atoms: C_3  and  C_4 
REMARK    3  A    between atoms: C_11  and  C_15 
REMARK    4  A    between atoms: C_12  and  O_14 
REMARK       I    between atoms: C_15  and  N_17 
REMARK    5  A    between atoms: N_17  and  C_19 
REMARK    6  A    between atoms: C_22  and  N_25 
ROOT
HETATM    1  C   UNL     1      -2.696  12.896  23.525  0.00  0.00     0.260 C 
HETATM    2  O   UNL     1      -2.877  11.777  23.031  0.00  0.00    -0.267 OA
HETATM    3  N   UNL     1      -2.220  13.084  24.842  0.00  0.00    -0.318 N 
HETATM    4  C   UNL     1      -2.138  14.376  25.526  0.00  0.00     0.159 C 
ENDROOT
BRANCH   1   5
HETATM    5  C   UNL     1      -3.032  14.018  22.595  0.00  0.00     0.066 A 
HETATM    6  C   UNL     1      -1.935  14.834  22.224  0.00  0.00     0.035 A 
HETATM    7  C   UNL     1      -2.090  15.862  21.269  0.00  0.00     0.019 A 
HETATM    8  C   UNL     1      -1.249  16.776  20.578  0.00  0.00     0.067 A 
HETATM    9  C   UNL     1      -3.363  16.097  20.763  0.00  0.00     0.065 A 
HETATM   10  N   UNL     1      -1.950  17.558  19.740  0.00  0.00    -0.178 NA
HETATM   11  N   UNL     1      -3.216  17.144  19.893  0.00  0.00    -0.277 N 
HETATM   12  H   UNL     1      -3.937  17.593  19.339  0.00  0.00     0.189 HD
HETATM   13  C   UNL     1      -4.474  15.325  21.101  0.00  0.00     0.069 A 
HETATM   14  C   UNL     1      -4.263  14.237  21.964  0.00  0.00     0.083 A 
BRANCH   8  15
HETATM   15  C   UNL     1       0.240  16.900  20.631  0.00  0.00     0.062 C 
BRANCH  15  16
HETATM   16  C   UNL     1       0.759  17.201  22.038  0.00  0.00     0.002 C 
HETATM   17  C   UNL     1       2.279  17.225  22.084  0.00  0.00     0.005 C 
ENDBRANCH  15  16
ENDBRANCH   8  15
BRANCH  14  18
HETATM   18  O   UNL     1      -5.322  13.374  22.043  0.00  0.00    -0.360 OA
HETATM   19  H   UNL     1      -6.134  13.909  21.981  0.00  0.00     0.217 HD
ENDBRANCH  14  18
ENDBRANCH   1   5
BRANCH   3  20
HETATM   20  C   UNL     1      -1.792  11.937  25.613  0.00  0.00     0.037 A 
HETATM   21  C   UNL     1      -0.616  11.247  25.301  0.00  0.00     0.032 A 
HETATM   22  C   UNL     1      -0.202  10.125  26.038  0.00  0.00     0.031 A 
HETATM   23  C   UNL     1      -0.947   9.636  27.113  0.00  0.00     0.030 A 
HETATM   24  C   UNL     1      -2.106  10.356  27.441  0.00  0.00     0.031 A 
HETATM   25  C   UNL     1      -2.517  11.490  26.721  0.00  0.00     0.032 A 
BRANCH  23  26
HETATM   26  N   UNL     1      -0.555   8.550  27.866  0.00  0.00    -0.377 N 
HETATM   27  C   UNL     1      -0.750   7.159  27.430  0.00  0.00     0.149 C 
HETATM   28  C   UNL     1       0.459   6.333  27.907  0.00  0.00     0.187 C 
HETATM   29  O   UNL     1       0.655   6.429  29.331  0.00  0.00    -0.388 OA
HETATM   30  C   UNL     1       0.844   7.801  29.721  0.00  0.00     0.187 C 
HETATM   31  C   UNL     1      -0.363   8.666  29.323  0.00  0.00     0.149 C 
ENDBRANCH  23  26
ENDBRANCH   3  20
TORSDOF 6
ENDMDL
MODEL 3
REMARK VINA RESULT:    -7.665      1.505      1.963
REMARK INTER + INTRA:         -10.820
REMARK INTER:                 -10.050
REMARK INTRA:                  -0.770
REMARK UNBOUND:                -0.691
REMARK  6 active torsions:
REMARK  status: ('A' for Active; 'I' for Inactive)
REMARK    1  A    between atoms: C_2  and  C_3 
REMARK    2  A    between atoms: C_3  and  C_4 
REMARK    3  A    between atoms: C_11  and  C_15 
REMARK    4  A    between atoms: C_12  and  O_14 
REMARK       I    between atoms: C_15  and  N_17 
REMARK    5  A    between atoms: N_17  and  C_19 
REMARK    6  A    between atoms: C_22  and  N_25 
ROOT
HETATM    1  C   UNL     1      -1.947  13.084  23.933  0.00  0.00     0.260 C 
HETATM    2  O   UNL     1      -1.632  13.671  24.975  0.00  0.00    -0.267 OA
HETATM    3  N   UNL     1      -1.613  11.734  23.684  0.00  0.00    -0.318 N 
HETATM    4  C   UNL     1      -1.822  11.042  22.411  0.00  0.00     0.159 C 
ENDROOT
BRANCH   1   5
HETATM    5  C   UNL     1      -2.708  13.943  22.974  0.00  0.00     0.066 A 
HETATM    6  C   UNL     1      -1.922  14.886  22.265  0.00  0.00     0.035 A 
HETATM    7  C   UNL     1      -2.493  15.685  21.251  0.00  0.00     0.019 A 
HETATM    8  C   UNL     1      -2.036  16.617  20.280  0.00  0.00     0.067 A 
HETATM    9  C   UNL     1      -3.859  15.574  21.023  0.00  0.00     0.065 A 
HETATM   10  N   UNL     1      -3.048  17.090  19.533  0.00  0.00    -0.178 NA
HETATM   11  N   UNL     1      -4.130  16.465  20.020  0.00  0.00    -0.277 N 
HETATM   12  H   UNL     1      -5.029  16.661  19.593  0.00  0.00     0.189 HD
HETATM   13  C   UNL     1      -4.674  14.665  21.697  0.00  0.00     0.069 A 
HETATM   14  C   UNL     1      -4.054  13.803  22.617  0.00  0.00     0.083 A 
BRANCH   8  15
HETATM   15  C   UNL     1      -0.635  17.040  19.976  0.00  0.00     0.062 C 
BRANCH  15  16
HETATM   16  C   UNL     1       0.155  17.411  21.233  0.00  0.00     0.002 C 
HETATM   17  C   UNL     1       1.616  17.003  21.119  0.00  0.00     0.005 C 
ENDBRANCH  15  16
ENDBRANCH   8  15
BRANCH  14  18
HETATM   18  O   UNL     1      -4.850  12.773  23.041  0.00  0.00    -0.360 OA
HETATM   19  H   UNL     1      -4.488  11.954  22.656  0.00  0.00     0.217 HD
ENDBRANCH  14  18
ENDBRANCH   1   5
BRANCH   3  20
HETATM   20  C   UNL     1      -0.997  10.949  24.732  0.00  0.00     0.037 A 
HETATM   21  C   UNL     1      -1.745  10.451  25.804  0.00  0.00     0.032 A 
HETATM   22  C   UNL     1      -1.150   9.700  26.831  0.00  0.00     0.031 A 
HETATM   23  C   UNL     1       0.218   9.420  26.840  0.00  0.00     0.030 A 
HETATM   24  C   UNL     1       0.953   9.892  25.742  0.00  0.00     0.031 A 
HETATM   25  C   UNL     1       0.362  10.629  24.702  0.00  0.00     0.032 A 
BRANCH  23  26
HETATM   26  N   UNL     1       0.824   8.668  27.823  0.00  0.00    -0.377 N 
HETATM   27  C   UNL     1       1.725   7.543  27.532  0.00  0.00     0.149 C 
HETATM   28  C   UNL     1       2.838   7.532  28.597  0.00  0.00     0.187 C 
HETATM   29  O   UNL     1       2.309   7.466  29.934  0.00  0.00    -0.388 OA
HETATM   30  C   UNL     1       1.434   8.581  30.185  0.00  0.00     0.187 C 
HETATM   31  C   UNL     1       0.267   8.609  29.186  0.00  0.00     0.149 C 
ENDBRANCH  23  26
ENDBRANCH   3  20
TORSDOF 6
ENDMDL
MODEL 4
REMARK VINA RESULT:    -7.631      1.886      2.517
REMARK INTER + INTRA:         -10.776
REMARK INTER:                 -10.350
REMARK INTRA:                  -0.426
REMARK UNBOUND:                -0.691
REMARK  6 active torsions:
REMARK  status: ('A' for Active; 'I' for Inactive)
REMARK    1  A    between atoms: C_2  and  C_3 
REMARK    2  A    between atoms: C_3  and  C_4 
REMARK    3  A    between atoms: C_11  and  C_15 
REMARK    4  A    between atoms: C_12  and  O_14 
REMARK       I    between atoms: C_15  and  N_17 
REMARK    5  A    between atoms: N_17  and  C_19 
REMARK    6  A    between atoms: C_22  and  N_25 
ROOT
HETATM    1  C   UNL     1      -1.852  12.360  22.234  0.00  0.00     0.260 C 
HETATM    2  O   UNL     1      -2.184  11.366  21.579  0.00  0.00    -0.267 OA
HETATM    3  N   UNL     1      -1.304  12.272  23.534  0.00  0.00    -0.318 N 
HETATM    4  C   UNL     1      -1.042  13.415  24.411  0.00  0.00     0.159 C 
ENDROOT
BRANCH   1   5
HETATM    5  C   UNL     1      -2.090  13.652  21.519  0.00  0.00     0.066 A 
HETATM    6  C   UNL     1      -1.057  14.612  21.661  0.00  0.00     0.035 A 
HETATM    7  C   UNL     1      -1.103  15.832  20.952  0.00  0.00     0.019 A 
HETATM    8  C   UNL     1      -0.247  16.947  20.745  0.00  0.00     0.067 A 
HETATM    9  C   UNL     1      -2.224  16.094  20.174  0.00  0.00     0.065 A 
HETATM   10  N   UNL     1      -0.811  17.861  19.938  0.00  0.00    -0.178 NA
HETATM   11  N   UNL     1      -2.005  17.333  19.633  0.00  0.00    -0.277 N 
HETATM   12  H   UNL     1      -2.614  17.853  19.013  0.00  0.00     0.189 HD
HETATM   13  C   UNL     1      -3.267  15.184  20.007  0.00  0.00     0.069 A 
HETATM   14  C   UNL     1      -3.137  13.933  20.633  0.00  0.00     0.083 A 
BRANCH   8  15
HETATM   15  C   UNL     1       1.148  17.160  21.240  0.00  0.00     0.062 C 
BRANCH  15  16
HETATM   16  C   UNL     1       2.204  16.889  20.166  0.00  0.00     0.002 C 
HETATM   17  C   UNL     1       2.587  15.418  20.112  0.00  0.00     0.005 C 
ENDBRANCH  15  16
ENDBRANCH   8  15
BRANCH  14  18
HETATM   18  O   UNL     1      -4.052  13.003  20.219  0.00  0.00    -0.360 OA
HETATM   19  H   UNL     1      -3.565  12.321  19.722  0.00  0.00     0.217 HD
ENDBRANCH  14  18
ENDBRANCH   1   5
BRANCH   3  20
HETATM   20  C   UNL     1      -0.984  10.973  24.084  0.00  0.00     0.037 A 
HETATM   21  C   UNL     1      -0.037  10.139  23.479  0.00  0.00     0.032 A 
HETATM   22  C   UNL     1       0.267   8.871  24.001  0.00  0.00     0.031 A 
HETATM   23  C   UNL     1      -0.364   8.375  25.143  0.00  0.00     0.030 A 
HETATM   24  C   UNL     1      -1.285   9.232  25.763  0.00  0.00     0.031 A 
HETATM   25  C   UNL     1      -1.582  10.509  25.258  0.00  0.00     0.032 A 
BRANCH  23  26
HETATM   26  N   UNL     1      -0.069   7.144  25.688  0.00  0.00    -0.377 N 
HETATM   27  C   UNL     1      -0.038   5.903  24.898  0.00  0.00     0.149 C 
HETATM   28  C   UNL     1       1.091   5.012  25.451  0.00  0.00     0.187 C 
HETATM   29  O   UNL     1       0.936   4.750  26.858  0.00  0.00    -0.388 OA
HETATM   30  C   UNL     1       0.910   5.984  27.599  0.00  0.00     0.187 C 
HETATM   31  C   UNL     1      -0.237   6.892  27.131  0.00  0.00     0.149 C 
ENDBRANCH  23  26
ENDBRANCH   3  20
TORSDOF 6
ENDMDL
MODEL 5
REMARK VINA RESULT:    -7.623      1.538      1.996
REMARK INTER + INTRA:         -10.765
REMARK INTER:                 -10.121
REMARK INTRA:                  -0.644
REMARK UNBOUND:                -0.691
REMARK  6 active torsions:
REMARK  status: ('A' for Active; 'I' for Inactive)
REMARK    1  A    between atoms: C_2  and  C_3 
REMARK    2  A    between atoms: C_3  and  C_4 
REMARK    3  A    between atoms: C_11  and  C_15 
REMARK    4  A    between atoms: C_12  and  O_14 
REMARK       I    between atoms: C_15  and  N_17 
REMARK    5  A    between atoms: N_17  and  C_19 
REMARK    6  A    between atoms: C_22  and  N_25 
ROOT
HETATM    1  C   UNL     1      -2.453  12.414  22.894  0.00  0.00     0.260 C 
HETATM    2  O   UNL     1      -3.040  11.440  22.409  0.00  0.00    -0.267 OA
HETATM    3  N   UNL     1      -1.562  12.304  23.985  0.00  0.00    -0.318 N 
HETATM    4  C   UNL     1      -0.965  13.438  24.695  0.00  0.00     0.159 C 
ENDROOT
BRANCH   1   5
HETATM    5  C   UNL     1      -2.783  13.705  22.217  0.00  0.00     0.066 A 
HETATM    6  C   UNL     1      -1.660  14.459  21.791  0.00  0.00     0.035 A 
HETATM    7  C   UNL     1      -1.829  15.644  21.043  0.00  0.00     0.019 A 
HETATM    8  C   UNL     1      -0.994  16.573  20.365  0.00  0.00     0.067 A 
HETATM    9  C   UNL     1      -3.123  16.089  20.806  0.00  0.00     0.065 A 
HETATM   10  N   UNL     1      -1.710  17.553  19.788  0.00  0.00    -0.178 NA
HETATM   11  N   UNL     1      -2.980  17.249  20.091  0.00  0.00    -0.277 N 
HETATM   12  H   UNL     1      -3.714  17.855  19.744  0.00  0.00     0.189 HD
HETATM   13  C   UNL     1      -4.258  15.386  21.208  0.00  0.00     0.069 A 
HETATM   14  C   UNL     1      -4.057  14.151  21.848  0.00  0.00     0.083 A 
BRANCH   8  15
HETATM   15  C   UNL     1       0.489  16.536  20.178  0.00  0.00     0.062 C 
BRANCH  15  16
HETATM   16  C   UNL     1       1.228  17.476  21.133  0.00  0.00     0.002 C 
HETATM   17  C   UNL     1       1.036  17.067  22.586  0.00  0.00     0.005 C 
ENDBRANCH  15  16
ENDBRANCH   8  15
BRANCH  14  18
HETATM   18  O   UNL     1      -5.193  13.398  21.976  0.00  0.00    -0.360 OA
HETATM   19  H   UNL     1      -5.592  13.326  21.090  0.00  0.00     0.217 HD
ENDBRANCH  14  18
ENDBRANCH   1   5
BRANCH   3  20
HETATM   20  C   UNL     1      -1.202  10.994  24.481  0.00  0.00     0.037 A 
HETATM   21  C   UNL     1      -1.624  10.550  25.739  0.00  0.00     0.032 A 
HETATM   22  C   UNL     1      -1.267   9.283  26.231  0.00  0.00     0.031 A 
HETATM   23  C   UNL     1      -0.467   8.407  25.495  0.00  0.00     0.030 A 
HETATM   24  C   UNL     1      -0.079   8.846  24.220  0.00  0.00     0.031 A 
HETATM   25  C   UNL     1      -0.447  10.104  23.713  0.00  0.00     0.032 A 
BRANCH  23  26
HETATM   26  N   UNL     1      -0.118   7.152  25.944  0.00  0.00    -0.377 N 
HETATM   27  C   UNL     1      -0.096   5.967  25.074  0.00  0.00     0.149 C 
HETATM   28  C   UNL     1       1.078   5.071  25.513  0.00  0.00     0.187 C 
HETATM   29  O   UNL     1       0.998   4.715  26.906  0.00  0.00    -0.388 OA
HETATM   30  C   UNL     1       0.980   5.897  27.727  0.00  0.00     0.187 C 
HETATM   31  C   UNL     1      -0.210   6.804  27.373  0.00  0.00     0.149 C 
ENDBRANCH  23  26
ENDBRANCH   3  20
TORSDOF 6
ENDMDL
MODEL 6
REMARK VINA RESULT:    -7.588      2.428      3.905
REMARK INTER + INTRA:         -10.719
REMARK INTER:                  -9.710
REMARK INTRA:                  -1.009
REMARK UNBOUND:                -0.691
REMARK  6 active torsions:
REMARK  status: ('A' for Active; 'I' for Inactive)
REMARK    1  A    between atoms: C_2  and  C_3 
REMARK    2  A    between atoms: C_3  and  C_4 
REMARK    3  A    between atoms: C_11  and  C_15 
REMARK    4  A    between atoms: C_12  and  O_14 
REMARK       I    between atoms: C_15  and  N_17 
REMARK    5  A    between atoms: N_17  and  C_19 
REMARK    6  A    between atoms: C_22  and  N_25 
ROOT
HETATM    1  C   UNL     1       0.220  12.852  22.426  0.00  0.00     0.260 C 
HETATM    2  O   UNL     1       0.353  11.911  21.637  0.00  0.00    -0.267 OA
HETATM    3  N   UNL     1       0.078  12.668  23.821  0.00  0.00    -0.318 N 
HETATM    4  C   UNL     1      -0.238  13.730  24.777  0.00  0.00     0.159 C 
ENDROOT
BRANCH   1   5
HETATM    5  C   UNL     1       0.220  14.192  21.762  0.00  0.00     0.066 A 
HETATM    6  C   UNL     1      -1.048  14.628  21.300  0.00  0.00     0.035 A 
HETATM    7  C   UNL     1      -1.211  15.919  20.752  0.00  0.00     0.019 A 
HETATM    8  C   UNL     1      -2.288  16.732  20.307  0.00  0.00     0.067 A 
HETATM    9  C   UNL     1      -0.081  16.715  20.607  0.00  0.00     0.065 A 
HETATM   10  N   UNL     1      -1.859  17.928  19.870  0.00  0.00    -0.178 NA
HETATM   11  N   UNL     1      -0.530  17.877  20.039  0.00  0.00    -0.277 N 
HETATM   12  H   UNL     1       0.017  18.692  19.783  0.00  0.00     0.189 HD
HETATM   13  C   UNL     1       1.187  16.328  21.040  0.00  0.00     0.069 A 
HETATM   14  C   UNL     1       1.294  15.086  21.688  0.00  0.00     0.083 A 
BRANCH   8  15
HETATM   15  C   UNL     1      -3.754  16.441  20.340  0.00  0.00     0.062 C 
BRANCH  15  16
HETATM   16  C   UNL     1      -4.162  15.348  19.350  0.00  0.00     0.002 C 
HETATM   17  C   UNL     1      -4.686  14.110  20.064  0.00  0.00     0.005 C 
ENDBRANCH  15  16
ENDBRANCH   8  15
BRANCH  14  18
HETATM   18  O   UNL     1       2.494  14.886  22.316  0.00  0.00    -0.360 OA
HETATM   19  H   UNL     1       2.297  14.599  23.227  0.00  0.00     0.217 HD
ENDBRANCH  14  18
ENDBRANCH   1   5
BRANCH   3  20
HETATM   20  C   UNL     1       0.231  11.343  24.381  0.00  0.00     0.037 A 
HETATM   21  C   UNL     1       1.465  10.892  24.860  0.00  0.00     0.032 A 
HETATM   22  C   UNL     1       1.621   9.602  25.393  0.00  0.00     0.031 A 
HETATM   23  C   UNL     1       0.557   8.701  25.464  0.00  0.00     0.030 A 
HETATM   24  C   UNL     1      -0.685   9.174  25.014  0.00  0.00     0.031 A 
HETATM   25  C   UNL     1      -0.854  10.470  24.497  0.00  0.00     0.032 A 
BRANCH  23  26
HETATM   26  N   UNL     1       0.677   7.437  26.000  0.00  0.00    -0.377 N 
HETATM   27  C   UNL     1      -0.387   6.795  26.787  0.00  0.00     0.149 C 
HETATM   28  C   UNL     1      -0.382   5.289  26.463  0.00  0.00     0.187 C 
HETATM   29  O   UNL     1       0.904   4.687  26.704  0.00  0.00    -0.388 OA
HETATM   30  C   UNL     1       1.919   5.338  25.918  0.00  0.00     0.187 C 
HETATM   31  C   UNL     1       2.001   6.837  26.243  0.00  0.00     0.149 C 
ENDBRANCH  23  26
ENDBRANCH   3  20
TORSDOF 6
ENDMDL
MODEL 7
REMARK VINA RESULT:    -7.518      2.097      3.749
REMARK INTER + INTRA:         -10.626
REMARK INTER:                  -9.626
REMARK INTRA:                  -1.000
REMARK UNBOUND:                -0.691
REMARK  6 active torsions:
REMARK  status: ('A' for Active; 'I' for Inactive)
REMARK    1  A    between atoms: C_2  and  C_3 
REMARK    2  A    between atoms: C_3  and  C_4 
REMARK    3  A    between atoms: C_11  and  C_15 
REMARK    4  A    between atoms: C_12  and  O_14 
REMARK       I    between atoms: C_15  and  N_17 
REMARK    5  A    between atoms: N_17  and  C_19 
REMARK    6  A    between atoms: C_22  and  N_25 
ROOT
HETATM    1  C   UNL     1       0.317  13.564  23.605  0.00  0.00     0.260 C 
HETATM    2  O   UNL     1       0.508  14.003  24.745  0.00  0.00    -0.267 OA
HETATM    3  N   UNL     1       0.137  12.189  23.334  0.00  0.00    -0.318 N 
HETATM    4  C   UNL     1       0.064  11.603  21.994  0.00  0.00     0.159 C 
ENDROOT
BRANCH   1   5
HETATM    5  C   UNL     1       0.298  14.628  22.554  0.00  0.00     0.066 A 
HETATM    6  C   UNL     1      -0.977  14.892  21.995  0.00  0.00     0.035 A 
HETATM    7  C   UNL     1      -1.157  15.945  21.072  0.00  0.00     0.019 A 
HETATM    8  C   UNL     1      -2.246  16.573  20.409  0.00  0.00     0.067 A 
HETATM    9  C   UNL     1      -0.035  16.660  20.670  0.00  0.00     0.065 A 
HETATM   10  N   UNL     1      -1.831  17.573  19.614  0.00  0.00    -0.178 NA
HETATM   11  N   UNL     1      -0.500  17.584  19.772  0.00  0.00    -0.277 N 
HETATM   12  H   UNL     1       0.037  18.279  19.267  0.00  0.00     0.189 HD
HETATM   13  C   UNL     1       1.240  16.433  21.186  0.00  0.00     0.069 A 
HETATM   14  C   UNL     1       1.365  15.458  22.189  0.00  0.00     0.083 A 
BRANCH   8  15
HETATM   15  C   UNL     1      -3.709  16.301  20.550  0.00  0.00     0.062 C 
BRANCH  15  16
HETATM   16  C   UNL     1      -4.217  15.264  19.547  0.00  0.00     0.002 C 
HETATM   17  C   UNL     1      -4.197  13.859  20.131  0.00  0.00     0.005 C 
ENDBRANCH  15  16
ENDBRANCH   8  15
BRANCH  14  18
HETATM   18  O   UNL     1       2.573  15.470  22.833  0.00  0.00    -0.360 OA
HETATM   19  H   UNL     1       2.767  16.397  23.062  0.00  0.00     0.217 HD
ENDBRANCH  14  18
ENDBRANCH   1   5
BRANCH   3  20
HETATM   20  C   UNL     1       0.033  11.255  24.433  0.00  0.00     0.037 A 
HETATM   21  C   UNL     1       1.148  10.549  24.897  0.00  0.00     0.032 A 
HETATM   22  C   UNL     1       1.049   9.631  25.956  0.00  0.00     0.031 A 
HETATM   23  C   UNL     1      -0.165   9.370  26.594  0.00  0.00     0.030 A 
HETATM   24  C   UNL     1      -1.270  10.110  26.146  0.00  0.00     0.031 A 
HETATM   25  C   UNL     1      -1.177  11.044  25.100  0.00  0.00     0.032 A 
BRANCH  23  26
HETATM   26  N   UNL     1      -0.286   8.491  27.648  0.00  0.00    -0.377 N 
HETATM   27  C   UNL     1      -0.729   7.098  27.484  0.00  0.00     0.149 C 
HETATM   28  C   UNL     1       0.048   6.226  28.487  0.00  0.00     0.187 C 
HETATM   29  O   UNL     1      -0.110   6.685  29.843  0.00  0.00    -0.388 OA
HETATM   30  C   UNL     1       0.334   8.049  29.967  0.00  0.00     0.187 C 
HETATM   31  C   UNL     1      -0.452   8.979  29.029  0.00  0.00     0.149 C 
ENDBRANCH  23  26
ENDBRANCH   3  20
TORSDOF 6
ENDMDL
MODEL 8
REMARK VINA RESULT:    -7.277      1.858      2.472
REMARK INTER + INTRA:         -10.308
REMARK INTER:                  -9.617
REMARK INTRA:                  -0.691
REMARK UNBOUND:                -0.691
REMARK  6 active torsions:
REMARK  status: ('A' for Active; 'I' for Inactive)
REMARK    1  A    between atoms: C_2  and  C_3 
REMARK    2  A    between atoms: C_3  and  C_4 
REMARK    3  A    between atoms: C_11  and  C_15 
REMARK    4  A    between atoms: C_12  and  O_14 
REMARK       I    between atoms: C_15  and  N_17 
REMARK    5  A    between atoms: N_17  and  C_19 
REMARK    6  A    between atoms: C_22  and  N_25 
ROOT
HETATM    1  C   UNL     1      -1.004  11.627  23.446  0.00  0.00     0.260 C 
HETATM    2  O   UNL     1       0.230  11.559  23.406  0.00  0.00    -0.267 OA
HETATM    3  N   UNL     1      -1.789  10.808  24.289  0.00  0.00    -0.318 N 
HETATM    4  C   UNL     1      -3.251  10.738  24.262  0.00  0.00     0.159 C 
ENDROOT
BRANCH   1   5
HETATM    5  C   UNL     1      -1.574  12.652  22.518  0.00  0.00     0.066 A 
HETATM    6  C   UNL     1      -1.091  13.970  22.715  0.00  0.00     0.035 A 
HETATM    7  C   UNL     1      -1.463  15.014  21.841  0.00  0.00     0.019 A 
HETATM    8  C   UNL     1      -1.117  16.378  21.643  0.00  0.00     0.067 A 
HETATM    9  C   UNL     1      -2.375  14.727  20.832  0.00  0.00     0.065 A 
HETATM   10  N   UNL     1      -1.798  16.917  20.617  0.00  0.00    -0.178 NA
HETATM   11  N   UNL     1      -2.561  15.911  20.169  0.00  0.00    -0.277 N 
HETATM   12  H   UNL     1      -3.165  16.085  19.373  0.00  0.00     0.189 HD
HETATM   13  C   UNL     1      -2.882  13.449  20.601  0.00  0.00     0.069 A 
HETATM   14  C   UNL     1      -2.402  12.409  21.415  0.00  0.00     0.083 A 
BRANCH   8  15
HETATM   15  C   UNL     1      -0.093  17.197  22.360  0.00  0.00     0.062 C 
BRANCH  15  16
HETATM   16  C   UNL     1       1.339  16.750  22.057  0.00  0.00     0.002 C 
HETATM   17  C   UNL     1       1.741  17.082  20.628  0.00  0.00     0.005 C 
ENDBRANCH  15  16
ENDBRANCH   8  15
BRANCH  14  18
HETATM   18  O   UNL     1      -2.730  11.156  20.972  0.00  0.00    -0.360 OA
HETATM   19  H   UNL     1      -3.671  11.178  20.720  0.00  0.00     0.217 HD
ENDBRANCH  14  18
ENDBRANCH   1   5
BRANCH   3  20
HETATM   20  C   UNL     1      -1.137   9.946  25.250  0.00  0.00     0.037 A 
HETATM   21  C   UNL     1      -1.071  10.284  26.606  0.00  0.00     0.032 A 
HETATM   22  C   UNL     1      -0.427   9.457  27.541  0.00  0.00     0.031 A 
HETATM   23  C   UNL     1       0.187   8.261  27.165  0.00  0.00     0.030 A 
HETATM   24  C   UNL     1       0.085   7.912  25.810  0.00  0.00     0.031 A 
HETATM   25  C   UNL     1      -0.574   8.725  24.871  0.00  0.00     0.032 A 
BRANCH  23  26
HETATM   26  N   UNL     1       0.808   7.421  28.063  0.00  0.00    -0.377 N 
HETATM   27  C   UNL     1       0.498   5.987  28.166  0.00  0.00     0.149 C 
HETATM   28  C   UNL     1       1.804   5.235  28.488  0.00  0.00     0.187 C 
HETATM   29  O   UNL     1       2.439   5.736  29.679  0.00  0.00    -0.388 OA
HETATM   30  C   UNL     1       2.728   7.139  29.543  0.00  0.00     0.187 C 
HETATM   31  C   UNL     1       1.450   7.950  29.280  0.00  0.00     0.149 C 
ENDBRANCH  23  26
ENDBRANCH   3  20
TORSDOF 6
ENDMDL
