MODEL 1
REMARK VINA RESULT:   -10.567      0.000      0.000
REMARK INTER + INTRA:         -14.003
REMARK INTER:                 -12.029
REMARK INTRA:                  -1.974
REMARK UNBOUND:                -0.656
REMARK  5 active torsions:
REMARK  status: ('A' for Active; 'I' for Inactive)
REMARK       I    between atoms: N_8  and  C_10 
REMARK    1  A    between atoms: C_10  and  C_12 
REMARK    2  A    between atoms: C_14  and  N_15 
REMARK    3  A    between atoms: C_21  and  C_23 
REMARK    4  A    between atoms: C_28  and  S_29 
REMARK    5  A    between atoms: S_29  and  N_32 
ROOT
HETATM    1  C   UNL     1       5.565   9.461  21.235  0.00  0.00     0.156 A 
HETATM    2  N   UNL     1       5.541   8.129  20.953  0.00  0.00    -0.057 NA
HETATM    3  C   UNL     1       5.019   7.337  21.876  0.00  0.00     0.721 A 
HETATM    4  N   UNL     1       4.529   7.781  23.033  0.00  0.00    -0.063 NA
HETATM    5  C   UNL     1       4.552   9.108  23.302  0.00  0.00     0.088 A 
HETATM    6  C   UNL     1       5.038  10.063  22.419  0.00  0.00     0.029 A 
HETATM    7  C   UNL     1       4.093   9.568  24.538  0.00  0.00     0.034 A 
HETATM    8  C   UNL     1       4.083  10.936  24.934  0.00  0.00     0.014 A 
HETATM    9  C   UNL     1       4.520  11.959  24.087  0.00  0.00    -0.023 A 
HETATM   10  C   UNL     1       4.962  11.482  22.817  0.00  0.00     0.028 A 
ENDROOT
BRANCH   9  11
HETATM   11  C   UNL     1       4.431  13.444  24.453  0.00  0.00    -0.003 A 
HETATM   12  C   UNL     1       3.638  14.296  23.639  0.00  0.00     0.014 A 
HETATM   13  C   UNL     1       3.434  15.678  23.896  0.00  0.00     0.001 A 
HETATM   14  C   UNL     1       3.938  16.283  25.027  0.00  0.00     0.002 A 
HETATM   15  C   UNL     1       4.748  15.502  25.851  0.00  0.00     0.026 A 
HETATM   16  C   UNL     1       5.033  14.133  25.545  0.00  0.00     0.090 A 
BRANCH  16  17
HETATM   17  S   UNL     1       6.459  13.581  26.468  0.00  0.00     0.261 S 
HETATM   18  O   UNL     1       7.128  14.735  27.016  0.00  0.00    -0.200 OA
HETATM   19  O   UNL     1       6.166  12.418  27.265  0.00  0.00    -0.200 OA
BRANCH  17  20
HETATM   20  N   UNL     1       7.417  12.970  25.191  0.00  0.00    -0.303 N 
HETATM   21  C   UNL     1       8.042  11.642  25.399  0.00  0.00     0.163 C 
HETATM   22  C   UNL     1       9.527  11.680  25.792  0.00  0.00     0.255 C 
HETATM   23  N   UNL     1      10.353  12.787  25.152  0.00  0.00    -0.072 N 
HETATM   24  H   UNL     1      10.697  12.402  24.262  0.00  0.00     0.279 HD
HETATM   25  C   UNL     1      11.577  13.116  25.983  0.00  0.00     0.269 C 
HETATM   26  C   UNL     1       9.625  14.082  24.831  0.00  0.00     0.255 C 
HETATM   27  C   UNL     1       8.189  13.898  24.348  0.00  0.00     0.163 C 
ENDBRANCH  17  20
ENDBRANCH  16  17
ENDBRANCH   9  11
BRANCH   1  28
HETATM   28  C   UNL     1       6.426  10.267  20.291  0.00  0.00     0.274 C 
HETATM   29  N   UNL     1       7.637  10.825  20.697  0.00  0.00    -0.342 N 
HETATM   30  C   UNL     1       8.370  10.607  21.941  0.00  0.00     0.161 C 
HETATM   31  C   UNL     1       8.410  11.680  19.796  0.00  0.00     0.139 C 
HETATM   32  C   UNL     1       9.797  10.823  21.513  0.00  0.00    -0.056 C 
HETATM   33  C   UNL     1      10.930  10.669  22.222  0.00  0.00    -0.018 C 
HETATM   34  C   UNL     1       9.855  11.292  20.074  0.00  0.00     0.056 C 
HETATM   35  C   UNL     1      12.265  11.067  21.627  0.00  0.00     0.054 C 
HETATM   36  C   UNL     1      12.117  12.126  20.552  0.00  0.00    -0.026 C 
HETATM   37  C   UNL     1      10.970  12.278  19.859  0.00  0.00    -0.020 C 
HETATM   38  O   UNL     1       5.996  10.464  19.149  0.00  0.00    -0.266 OA
ENDBRANCH   1  28
BRANCH   3  39
HETATM   39  N   UNL     1       5.014   5.984  21.620  0.00  0.00    -0.231 N 
HETATM   40  H   UNL     1       4.333   5.466  22.157  0.00  0.00     0.174 HD
HETATM   41  H   UNL     1       5.934   5.587  21.508  0.00  0.00     0.174 HD
ENDBRANCH   3  39
TORSDOF 5
ENDMDL
MODEL 2
REMARK VINA RESULT:   -10.251      2.401      6.277
REMARK INTER + INTRA:         -13.604
REMARK INTER:                 -12.113
REMARK INTRA:                  -1.491
REMARK UNBOUND:                -0.656
REMARK  5 active torsions:
REMARK  status: ('A' for Active; 'I' for Inactive)
REMARK       I    between atoms: N_8  and  C_10 
REMARK    1  A    between atoms: C_10  and  C_12 
REMARK    2  A    between atoms: C_14  and  N_15 
REMARK    3  A    between atoms: C_21  and  C_23 
REMARK    4  A    between atoms: C_28  and  S_29 
REMARK    5  A    between atoms: S_29  and  N_32 
ROOT
HETATM    1  C   UNL     1       6.648  10.888  21.954  0.00  0.00     0.156 A 
HETATM    2  N   UNL     1       5.631  10.275  21.285  0.00  0.00    -0.057 NA
HETATM    3  C   UNL     1       5.736  10.223  19.967  0.00  0.00     0.721 A 
HETATM    4  N   UNL     1       6.768  10.730  19.291  0.00  0.00    -0.063 NA
HETATM    5  C   UNL     1       7.776  11.332  19.966  0.00  0.00     0.088 A 
HETATM    6  C   UNL     1       7.822  11.433  21.350  0.00  0.00     0.029 A 
HETATM    7  C   UNL     1       8.828  11.915  19.255  0.00  0.00     0.034 A 
HETATM    8  C   UNL     1       9.931  12.585  19.857  0.00  0.00     0.014 A 
HETATM    9  C   UNL     1      10.068  12.695  21.244  0.00  0.00    -0.023 A 
HETATM   10  C   UNL     1       9.002  12.074  21.961  0.00  0.00     0.028 A 
ENDROOT
BRANCH   9  11
HETATM   11  C   UNL     1      11.291  13.326  21.916  0.00  0.00    -0.003 A 
HETATM   12  C   UNL     1      12.533  12.640  21.846  0.00  0.00     0.014 A 
HETATM   13  C   UNL     1      13.749  13.138  22.385  0.00  0.00     0.001 A 
HETATM   14  C   UNL     1      13.825  14.390  22.955  0.00  0.00     0.002 A 
HETATM   15  C   UNL     1      12.631  15.100  23.076  0.00  0.00     0.026 A 
HETATM   16  C   UNL     1      11.386  14.561  22.620  0.00  0.00     0.090 A 
BRANCH  16  17
HETATM   17  S   UNL     1      10.024  15.448  23.360  0.00  0.00     0.261 S 
HETATM   18  O   UNL     1      10.544  16.618  24.025  0.00  0.00    -0.200 OA
HETATM   19  O   UNL     1       8.885  15.511  22.482  0.00  0.00    -0.200 OA
BRANCH  17  20
HETATM   20  N   UNL     1       9.556  14.322  24.557  0.00  0.00    -0.303 N 
HETATM   21  C   UNL     1       8.709  14.832  25.661  0.00  0.00     0.163 C 
HETATM   22  C   UNL     1       9.457  15.118  26.973  0.00  0.00     0.255 C 
HETATM   23  N   UNL     1      10.598  14.167  27.304  0.00  0.00    -0.072 N 
HETATM   24  H   UNL     1      10.174  13.389  27.827  0.00  0.00     0.279 HD
HETATM   25  C   UNL     1      11.607  14.813  28.231  0.00  0.00     0.269 C 
HETATM   26  C   UNL     1      11.345  13.562  26.126  0.00  0.00     0.255 C 
HETATM   27  C   UNL     1      10.466  13.225  24.925  0.00  0.00     0.163 C 
ENDBRANCH  17  20
ENDBRANCH  16  17
ENDBRANCH   9  11
BRANCH   1  28
HETATM   28  C   UNL     1       6.336  11.173  23.405  0.00  0.00     0.274 C 
HETATM   29  N   UNL     1       6.081  12.466  23.859  0.00  0.00    -0.342 N 
HETATM   30  C   UNL     1       5.876  13.684  23.079  0.00  0.00     0.161 C 
HETATM   31  C   UNL     1       5.873  12.734  25.282  0.00  0.00     0.139 C 
HETATM   32  C   UNL     1       4.967  14.485  23.971  0.00  0.00    -0.056 C 
HETATM   33  C   UNL     1       4.370  15.668  23.735  0.00  0.00    -0.018 C 
HETATM   34  C   UNL     1       4.771  13.784  25.299  0.00  0.00     0.056 C 
HETATM   35  C   UNL     1       3.590  16.364  24.832  0.00  0.00     0.054 C 
HETATM   36  C   UNL     1       4.056  15.951  26.213  0.00  0.00    -0.026 C 
HETATM   37  C   UNL     1       4.665  14.767  26.433  0.00  0.00    -0.020 C 
HETATM   38  O   UNL     1       6.366  10.225  24.195  0.00  0.00    -0.266 OA
ENDBRANCH   1  28
BRANCH   3  39
HETATM   39  N   UNL     1       4.703   9.635  19.273  0.00  0.00    -0.231 N 
HETATM   40  H   UNL     1       3.801   9.736  19.714  0.00  0.00     0.174 HD
HETATM   41  H   UNL     1       4.939   8.740  18.871  0.00  0.00     0.174 HD
ENDBRANCH   3  39
TORSDOF 5
ENDMDL
MODEL 3
REMARK VINA RESULT:   -10.079      2.866      5.939
REMARK INTER + INTRA:         -13.387
REMARK INTER:                 -12.110
REMARK INTRA:                  -1.277
REMARK UNBOUND:                -0.656
REMARK  5 active torsions:
REMARK  status: ('A' for Active; 'I' for Inactive)
REMARK       I    between atoms: N_8  and  C_10 
REMARK    1  A    between atoms: C_10  and  C_12 
REMARK    2  A    between atoms: C_14  and  N_15 
REMARK    3  A    between atoms: C_21  and  C_23 
REMARK    4  A    between atoms: C_28  and  S_29 
REMARK    5  A    between atoms: S_29  and  N_32 
ROOT
HETATM    1  C   UNL     1       3.464  12.253  23.140  0.00  0.00     0.156 A 
HETATM    2  N   UNL     1       2.163  12.198  23.537  0.00  0.00    -0.057 NA
HETATM    3  C   UNL     1       1.630  13.328  23.976  0.00  0.00     0.721 A 
HETATM    4  N   UNL     1       2.298  14.479  24.039  0.00  0.00    -0.063 NA
HETATM    5  C   UNL     1       3.590  14.524  23.636  0.00  0.00     0.088 A 
HETATM    6  C   UNL     1       4.273  13.431  23.123  0.00  0.00     0.029 A 
HETATM    7  C   UNL     1       4.307  15.717  23.758  0.00  0.00     0.034 A 
HETATM    8  C   UNL     1       5.672  15.876  23.380  0.00  0.00     0.014 A 
HETATM    9  C   UNL     1       6.416  14.833  22.821  0.00  0.00    -0.023 A 
HETATM   10  C   UNL     1       5.666  13.627  22.678  0.00  0.00     0.028 A 
ENDROOT
BRANCH   9  11
HETATM   11  C   UNL     1       7.853  15.005  22.321  0.00  0.00    -0.003 A 
HETATM   12  C   UNL     1       8.084  15.037  20.920  0.00  0.00     0.014 A 
HETATM   13  C   UNL     1       9.359  15.238  20.328  0.00  0.00     0.001 A 
HETATM   14  C   UNL     1      10.474  15.505  21.092  0.00  0.00     0.002 A 
HETATM   15  C   UNL     1      10.314  15.461  22.476  0.00  0.00     0.026 A 
HETATM   16  C   UNL     1       9.050  15.164  23.077  0.00  0.00     0.090 A 
BRANCH  16  17
HETATM   17  S   UNL     1       9.278  14.684  24.783  0.00  0.00     0.261 S 
HETATM   18  O   UNL     1      10.667  14.862  25.129  0.00  0.00    -0.200 OA
HETATM   19  O   UNL     1       8.213  15.167  25.623  0.00  0.00    -0.200 OA
BRANCH  17  20
HETATM   20  N   UNL     1       8.973  13.007  24.660  0.00  0.00    -0.303 N 
HETATM   21  C   UNL     1       9.268  12.184  25.856  0.00  0.00     0.163 C 
HETATM   22  C   UNL     1      10.595  11.411  25.799  0.00  0.00     0.255 C 
HETATM   23  N   UNL     1      10.994  10.882  24.428  0.00  0.00    -0.072 N 
HETATM   24  H   UNL     1      10.560   9.953  24.348  0.00  0.00     0.279 HD
HETATM   25  C   UNL     1      12.491  10.671  24.330  0.00  0.00     0.269 C 
HETATM   26  C   UNL     1      10.543  11.696  23.226  0.00  0.00     0.255 C 
HETATM   27  C   UNL     1       9.159  12.323  23.370  0.00  0.00     0.163 C 
ENDBRANCH  17  20
ENDBRANCH  16  17
ENDBRANCH   9  11
BRANCH   1  28
HETATM   28  C   UNL     1       4.094  10.895  22.933  0.00  0.00     0.274 C 
HETATM   29  N   UNL     1       4.322  10.023  23.996  0.00  0.00    -0.342 N 
HETATM   30  C   UNL     1       3.865  10.129  25.379  0.00  0.00     0.161 C 
HETATM   31  C   UNL     1       5.017   8.752  23.788  0.00  0.00     0.139 C 
HETATM   32  C   UNL     1       3.758   8.686  25.792  0.00  0.00    -0.056 C 
HETATM   33  C   UNL     1       3.298   8.164  26.943  0.00  0.00    -0.018 C 
HETATM   34  C   UNL     1       4.280   7.779  24.698  0.00  0.00     0.056 C 
HETATM   35  C   UNL     1       3.399   6.674  27.202  0.00  0.00     0.054 C 
HETATM   36  C   UNL     1       4.521   6.033  26.411  0.00  0.00    -0.026 C 
HETATM   37  C   UNL     1       4.982   6.576  25.265  0.00  0.00    -0.020 C 
HETATM   38  O   UNL     1       4.452  10.597  21.789  0.00  0.00    -0.266 OA
ENDBRANCH   1  28
BRANCH   3  39
HETATM   39  N   UNL     1       0.323  13.284  24.409  0.00  0.00    -0.231 N 
HETATM   40  H   UNL     1       0.097  12.463  24.951  0.00  0.00     0.174 HD
HETATM   41  H   UNL     1      -0.345  13.602  23.723  0.00  0.00     0.174 HD
ENDBRANCH   3  39
TORSDOF 5
ENDMDL
MODEL 4
REMARK VINA RESULT:   -10.071      2.742      6.513
REMARK INTER + INTRA:         -13.376
REMARK INTER:                 -11.743
REMARK INTRA:                  -1.633
REMARK UNBOUND:                -0.656
REMARK  5 active torsions:
REMARK  status: ('A' for Active; 'I' for Inactive)
REMARK       I    between atoms: N_8  and  C_10 
REMARK    1  A    between atoms: C_10  and  C_12 
REMARK    2  A    between atoms: C_14  and  N_15 
REMARK    3  A    between atoms: C_21  and  C_23 
REMARK    4  A    between atoms: C_28  and  S_29 
REMARK    5  A    between atoms: S_29  and  N_32 
ROOT
HETATM    1  C   UNL     1      11.742  11.903  22.181  0.00  0.00     0.156 A 
HETATM    2  N   UNL     1      12.840  11.568  21.447  0.00  0.00    -0.057 NA
HETATM    3  C   UNL     1      12.766  11.775  20.142  0.00  0.00     0.721 A 
HETATM    4  N   UNL     1      11.692  12.285  19.539  0.00  0.00    -0.063 NA
HETATM    5  C   UNL     1      10.608  12.621  20.278  0.00  0.00     0.088 A 
HETATM    6  C   UNL     1      10.549  12.492  21.659  0.00  0.00     0.029 A 
HETATM    7  C   UNL     1       9.461  13.100  19.640  0.00  0.00     0.034 A 
HETATM    8  C   UNL     1       8.262  13.470  20.313  0.00  0.00     0.014 A 
HETATM    9  C   UNL     1       8.138  13.404  21.704  0.00  0.00    -0.023 A 
HETATM   10  C   UNL     1       9.323  12.939  22.348  0.00  0.00     0.028 A 
ENDROOT
BRANCH   9  11
HETATM   11  C   UNL     1       6.894  13.885  22.457  0.00  0.00    -0.003 A 
HETATM   12  C   UNL     1       6.636  15.280  22.518  0.00  0.00     0.014 A 
HETATM   13  C   UNL     1       5.495  15.851  23.142  0.00  0.00     0.001 A 
HETATM   14  C   UNL     1       4.495  15.066  23.673  0.00  0.00     0.002 A 
HETATM   15  C   UNL     1       4.705  13.688  23.665  0.00  0.00     0.026 A 
HETATM   16  C   UNL     1       5.898  13.113  23.122  0.00  0.00     0.090 A 
BRANCH  16  17
HETATM   17  S   UNL     1       6.096  11.438  23.710  0.00  0.00     0.261 S 
HETATM   18  O   UNL     1       7.229  11.394  24.601  0.00  0.00    -0.200 OA
HETATM   19  O   UNL     1       4.833  10.836  24.049  0.00  0.00    -0.200 OA
BRANCH  17  20
HETATM   20  N   UNL     1       6.539  10.666  22.251  0.00  0.00    -0.303 N 
HETATM   21  C   UNL     1       5.468  10.469  21.246  0.00  0.00     0.163 C 
HETATM   22  C   UNL     1       4.875   9.052  21.201  0.00  0.00     0.255 C 
HETATM   23  N   UNL     1       5.855   7.916  21.460  0.00  0.00    -0.072 N 
HETATM   24  H   UNL     1       6.255   7.674  20.544  0.00  0.00     0.279 HD
HETATM   25  C   UNL     1       5.145   6.675  21.964  0.00  0.00     0.269 C 
HETATM   26  C   UNL     1       7.017   8.218  22.393  0.00  0.00     0.255 C 
HETATM   27  C   UNL     1       7.584   9.629  22.261  0.00  0.00     0.163 C 
ENDBRANCH  17  20
ENDBRANCH  16  17
ENDBRANCH   9  11
BRANCH   1  28
HETATM   28  C   UNL     1      11.774  11.378  23.597  0.00  0.00     0.274 C 
HETATM   29  N   UNL     1      12.576  11.961  24.577  0.00  0.00    -0.342 N 
HETATM   30  C   UNL     1      13.334  13.209  24.514  0.00  0.00     0.161 C 
HETATM   31  C   UNL     1      12.665  11.382  25.918  0.00  0.00     0.139 C 
HETATM   32  C   UNL     1      13.343  13.650  25.952  0.00  0.00    -0.056 C 
HETATM   33  C   UNL     1      13.823  14.786  26.490  0.00  0.00    -0.018 C 
HETATM   34  C   UNL     1      12.714  12.594  26.837  0.00  0.00     0.056 C 
HETATM   35  C   UNL     1      13.843  14.973  27.993  0.00  0.00     0.054 C 
HETATM   36  C   UNL     1      13.871  13.650  28.732  0.00  0.00    -0.026 C 
HETATM   37  C   UNL     1      13.398  12.516  28.175  0.00  0.00    -0.020 C 
HETATM   38  O   UNL     1      11.101  10.375  23.853  0.00  0.00    -0.266 OA
ENDBRANCH   1  28
BRANCH   3  39
HETATM   39  N   UNL     1      13.855  11.414  19.381  0.00  0.00    -0.231 N 
HETATM   40  H   UNL     1      13.617  11.046  18.471  0.00  0.00     0.174 HD
HETATM   41  H   UNL     1      14.584  10.954  19.905  0.00  0.00     0.174 HD
ENDBRANCH   3  39
TORSDOF 5
ENDMDL
MODEL 5
REMARK VINA RESULT:   -10.006      1.782      2.234
REMARK INTER + INTRA:         -13.295
REMARK INTER:                 -11.526
REMARK INTRA:                  -1.769
REMARK UNBOUND:                -0.656
REMARK  5 active torsions:
REMARK  status: ('A' for Active; 'I' for Inactive)
REMARK       I    between atoms: N_8  and  C_10 
REMARK    1  A    between atoms: C_10  and  C_12 
REMARK    2  A    between atoms: C_14  and  N_15 
REMARK    3  A    between atoms: C_21  and  C_23 
REMARK    4  A    between atoms: C_28  and  S_29 
REMARK    5  A    between atoms: S_29  and  N_32 
ROOT
HETATM    1  C   UNL     1       7.761   9.223  23.034  0.00  0.00     0.156 A 
HETATM    2  N   UNL     1       7.852   7.898  22.735  0.00  0.00    -0.057 NA
HETATM    3  C   UNL     1       6.731   7.197  22.802  0.00  0.00     0.721 A 
HETATM    4  N   UNL     1       5.554   7.725  23.138  0.00  0.00    -0.063 NA
HETATM    5  C   UNL     1       5.473   9.046  23.427  0.00  0.00     0.088 A 
HETATM    6  C   UNL     1       6.555   9.913  23.368  0.00  0.00     0.029 A 
HETATM    7  C   UNL     1       4.252   9.587  23.836  0.00  0.00     0.034 A 
HETATM    8  C   UNL     1       4.053  10.955  24.178  0.00  0.00     0.014 A 
HETATM    9  C   UNL     1       5.084  11.897  24.108  0.00  0.00    -0.023 A 
HETATM   10  C   UNL     1       6.320  11.339  23.664  0.00  0.00     0.028 A 
ENDROOT
BRANCH   9  11
HETATM   11  C   UNL     1       4.873  13.389  24.379  0.00  0.00    -0.003 A 
HETATM   12  C   UNL     1       4.084  14.139  23.466  0.00  0.00     0.014 A 
HETATM   13  C   UNL     1       3.774  15.516  23.626  0.00  0.00     0.001 A 
HETATM   14  C   UNL     1       4.158  16.215  24.750  0.00  0.00     0.002 A 
HETATM   15  C   UNL     1       4.957  15.538  25.670  0.00  0.00     0.026 A 
HETATM   16  C   UNL     1       5.352  14.177  25.464  0.00  0.00     0.090 A 
BRANCH  16  17
HETATM   17  S   UNL     1       6.744  13.777  26.510  0.00  0.00     0.261 S 
HETATM   18  O   UNL     1       7.063  14.931  27.314  0.00  0.00    -0.200 OA
HETATM   19  O   UNL     1       6.627  12.459  27.077  0.00  0.00    -0.200 OA
BRANCH  17  20
HETATM   20  N   UNL     1       7.962  13.605  25.324  0.00  0.00    -0.303 N 
HETATM   21  C   UNL     1       8.834  12.410  25.428  0.00  0.00     0.163 C 
HETATM   22  C   UNL     1      10.214  12.669  26.051  0.00  0.00     0.255 C 
HETATM   23  N   UNL     1      10.849  14.013  25.721  0.00  0.00    -0.072 N 
HETATM   24  H   UNL     1      11.375  13.868  24.849  0.00  0.00     0.279 HD
HETATM   25  C   UNL     1      11.858  14.423  26.774  0.00  0.00     0.269 C 
HETATM   26  C   UNL     1       9.898  15.176  25.485  0.00  0.00     0.255 C 
HETATM   27  C   UNL     1       8.608  14.801  24.760  0.00  0.00     0.163 C 
ENDBRANCH  17  20
ENDBRANCH  16  17
ENDBRANCH   9  11
BRANCH   1  28
HETATM   28  C   UNL     1       9.100   9.897  23.225  0.00  0.00     0.274 C 
HETATM   29  N   UNL     1       9.559  10.879  22.349  0.00  0.00    -0.342 N 
HETATM   30  C   UNL     1       8.835  11.555  21.275  0.00  0.00     0.161 C 
HETATM   31  C   UNL     1      10.897  11.452  22.497  0.00  0.00     0.139 C 
HETATM   32  C   UNL     1       9.517  12.895  21.225  0.00  0.00    -0.056 C 
HETATM   33  C   UNL     1       9.216  13.975  20.481  0.00  0.00    -0.018 C 
HETATM   34  C   UNL     1      10.702  12.925  22.167  0.00  0.00     0.056 C 
HETATM   35  C   UNL     1      10.121  15.190  20.493  0.00  0.00     0.054 C 
HETATM   36  C   UNL     1      11.545  14.836  20.871  0.00  0.00    -0.026 C 
HETATM   37  C   UNL     1      11.834  13.742  21.606  0.00  0.00    -0.020 C 
HETATM   38  O   UNL     1       9.808   9.511  24.161  0.00  0.00    -0.266 OA
ENDBRANCH   1  28
BRANCH   3  39
HETATM   39  N   UNL     1       6.810   5.849  22.533  0.00  0.00    -0.231 N 
HETATM   40  H   UNL     1       6.610   5.259  23.327  0.00  0.00     0.174 HD
HETATM   41  H   UNL     1       7.582   5.598  21.934  0.00  0.00     0.174 HD
ENDBRANCH   3  39
TORSDOF 5
ENDMDL
MODEL 6
REMARK VINA RESULT:    -9.974      2.436      7.274
REMARK INTER + INTRA:         -13.255
REMARK INTER:                 -11.593
REMARK INTRA:                  -1.662
REMARK UNBOUND:                -0.656
REMARK  5 active torsions:
REMARK  status: ('A' for Active; 'I' for Inactive)
REMARK       I    between atoms: N_8  and  C_10 
REMARK    1  A    between atoms: C_10  and  C_12 
REMARK    2  A    between atoms: C_14  and  N_15 
REMARK    3  A    between atoms: C_21  and  C_23 
REMARK    4  A    between atoms: C_28  and  S_29 
REMARK    5  A    between atoms: S_29  and  N_32 
ROOT
HETATM    1  C   UNL     1      10.310  13.564  23.893  0.00  0.00     0.156 A 
HETATM    2  N   UNL     1      11.522  14.157  24.076  0.00  0.00    -0.057 NA
HETATM    3  C   UNL     1      12.480  13.820  23.227  0.00  0.00     0.721 A 
HETATM    4  N   UNL     1      12.307  12.951  22.231  0.00  0.00    -0.063 NA
HETATM    5  C   UNL     1      11.095  12.372  22.054  0.00  0.00     0.088 A 
HETATM    6  C   UNL     1       9.988  12.650  22.843  0.00  0.00     0.029 A 
HETATM    7  C   UNL     1      10.929  11.418  21.047  0.00  0.00     0.034 A 
HETATM    8  C   UNL     1       9.708  10.735  20.781  0.00  0.00     0.014 A 
HETATM    9  C   UNL     1       8.540  10.988  21.506  0.00  0.00    -0.023 A 
HETATM   10  C   UNL     1       8.714  11.983  22.514  0.00  0.00     0.028 A 
ENDROOT
BRANCH   9  11
HETATM   11  C   UNL     1       7.193  10.338  21.176  0.00  0.00    -0.003 A 
HETATM   12  C   UNL     1       6.664  10.500  19.868  0.00  0.00     0.014 A 
HETATM   13  C   UNL     1       5.452   9.911  19.421  0.00  0.00     0.001 A 
HETATM   14  C   UNL     1       4.730   9.052  20.222  0.00  0.00     0.002 A 
HETATM   15  C   UNL     1       5.187   8.875  21.527  0.00  0.00     0.026 A 
HETATM   16  C   UNL     1       6.356   9.543  22.011  0.00  0.00     0.090 A 
BRANCH  16  17
HETATM   17  S   UNL     1       6.381   9.523  23.797  0.00  0.00     0.261 S 
HETATM   18  O   UNL     1       5.309   8.677  24.262  0.00  0.00    -0.200 OA
HETATM   19  O   UNL     1       7.720   9.413  24.314  0.00  0.00    -0.200 OA
BRANCH  17  20
HETATM   20  N   UNL     1       5.951  11.146  24.115  0.00  0.00    -0.303 N 
HETATM   21  C   UNL     1       5.575  11.478  25.509  0.00  0.00     0.163 C 
HETATM   22  C   UNL     1       4.063  11.581  25.764  0.00  0.00     0.255 C 
HETATM   23  N   UNL     1       3.237  12.161  24.624  0.00  0.00    -0.072 N 
HETATM   24  H   UNL     1       3.234  13.180  24.768  0.00  0.00     0.279 HD
HETATM   25  C   UNL     1       1.793  11.709  24.699  0.00  0.00     0.269 C 
HETATM   26  C   UNL     1       3.749  11.908  23.215  0.00  0.00     0.255 C 
HETATM   27  C   UNL     1       5.269  11.938  23.079  0.00  0.00     0.163 C 
ENDBRANCH  17  20
ENDBRANCH  16  17
ENDBRANCH   9  11
BRANCH   1  28
HETATM   28  C   UNL     1       9.357  13.759  25.050  0.00  0.00     0.274 C 
HETATM   29  N   UNL     1       8.225  14.565  24.940  0.00  0.00    -0.342 N 
HETATM   30  C   UNL     1       7.653  15.176  23.743  0.00  0.00     0.161 C 
HETATM   31  C   UNL     1       7.366  14.816  26.098  0.00  0.00     0.139 C 
HETATM   32  C   UNL     1       6.190  15.245  24.089  0.00  0.00    -0.056 C 
HETATM   33  C   UNL     1       5.154  15.639  23.326  0.00  0.00    -0.018 C 
HETATM   34  C   UNL     1       5.959  14.803  25.519  0.00  0.00     0.056 C 
HETATM   35  C   UNL     1       3.764  15.751  23.920  0.00  0.00     0.054 C 
HETATM   36  C   UNL     1       3.802  15.977  25.419  0.00  0.00    -0.026 C 
HETATM   37  C   UNL     1       4.854  15.589  26.169  0.00  0.00    -0.020 C 
HETATM   38  O   UNL     1       9.641  13.220  26.125  0.00  0.00    -0.266 OA
ENDBRANCH   1  28
BRANCH   3  39
HETATM   39  N   UNL     1      13.721  14.387  23.416  0.00  0.00    -0.231 N 
HETATM   40  H   UNL     1      13.709  15.224  23.980  0.00  0.00     0.174 HD
HETATM   41  H   UNL     1      14.304  14.375  22.592  0.00  0.00     0.174 HD
ENDBRANCH   3  39
TORSDOF 5
ENDMDL
MODEL 7
REMARK VINA RESULT:    -9.940      3.294      6.608
REMARK INTER + INTRA:         -13.212
REMARK INTER:                 -11.808
REMARK INTRA:                  -1.404
REMARK UNBOUND:                -0.656
REMARK  5 active torsions:
REMARK  status: ('A' for Active; 'I' for Inactive)
REMARK       I    between atoms: N_8  and  C_10 
REMARK    1  A    between atoms: C_10  and  C_12 
REMARK    2  A    between atoms: C_14  and  N_15 
REMARK    3  A    between atoms: C_21  and  C_23 
REMARK    4  A    between atoms: C_28  and  S_29 
REMARK    5  A    between atoms: S_29  and  N_32 
ROOT
HETATM    1  C   UNL     1       6.880  12.728  23.204  0.00  0.00     0.156 A 
HETATM    2  N   UNL     1       8.007  12.999  22.489  0.00  0.00    -0.057 NA
HETATM    3  C   UNL     1       8.163  14.248  22.081  0.00  0.00     0.721 A 
HETATM    4  N   UNL     1       7.287  15.220  22.337  0.00  0.00    -0.063 NA
HETATM    5  C   UNL     1       6.172  14.941  23.053  0.00  0.00     0.088 A 
HETATM    6  C   UNL     1       5.888  13.687  23.576  0.00  0.00     0.029 A 
HETATM    7  C   UNL     1       5.226  15.945  23.271  0.00  0.00     0.034 A 
HETATM    8  C   UNL     1       4.013  15.763  23.996  0.00  0.00     0.014 A 
HETATM    9  C   UNL     1       3.674  14.541  24.585  0.00  0.00    -0.023 A 
HETATM   10  C   UNL     1       4.660  13.530  24.378  0.00  0.00     0.028 A 
ENDROOT
BRANCH   9  11
HETATM   11  C   UNL     1       2.424  14.346  25.448  0.00  0.00    -0.003 A 
HETATM   12  C   UNL     1       2.376  14.973  26.721  0.00  0.00     0.014 A 
HETATM   13  C   UNL     1       1.259  14.911  27.597  0.00  0.00     0.001 A 
HETATM   14  C   UNL     1       0.086  14.291  27.225  0.00  0.00     0.002 A 
HETATM   15  C   UNL     1       0.083  13.635  25.995  0.00  0.00     0.026 A 
HETATM   16  C   UNL     1       1.238  13.614  25.152  0.00  0.00     0.090 A 
BRANCH  16  17
HETATM   17  S   UNL     1       1.093  12.309  23.942  0.00  0.00     0.261 S 
HETATM   18  O   UNL     1      -0.221  12.373  23.351  0.00  0.00    -0.200 OA
HETATM   19  O   UNL     1       2.284  12.181  23.144  0.00  0.00    -0.200 OA
BRANCH  17  20
HETATM   20  N   UNL     1       1.144  10.946  24.973  0.00  0.00    -0.303 N 
HETATM   21  C   UNL     1       2.397  10.154  24.973  0.00  0.00     0.163 C 
HETATM   22  C   UNL     1       2.346   8.863  24.141  0.00  0.00     0.255 C 
HETATM   23  N   UNL     1       1.013   8.127  24.141  0.00  0.00    -0.072 N 
HETATM   24  H   UNL     1       1.043   7.492  24.949  0.00  0.00     0.279 HD
HETATM   25  C   UNL     1       0.861   7.257  22.910  0.00  0.00     0.269 C 
HETATM   26  C   UNL     1      -0.237   8.981  24.284  0.00  0.00     0.255 C 
HETATM   27  C   UNL     1      -0.083  10.174  25.225  0.00  0.00     0.163 C 
ENDBRANCH  17  20
ENDBRANCH  16  17
ENDBRANCH   9  11
BRANCH   1  28
HETATM   28  C   UNL     1       6.616  11.252  23.385  0.00  0.00     0.274 C 
HETATM   29  N   UNL     1       5.815  10.535  22.497  0.00  0.00    -0.342 N 
HETATM   30  C   UNL     1       5.273  10.961  21.209  0.00  0.00     0.161 C 
HETATM   31  C   UNL     1       5.496   9.129  22.741  0.00  0.00     0.139 C 
HETATM   32  C   UNL     1       5.181   9.662  20.456  0.00  0.00    -0.056 C 
HETATM   33  C   UNL     1       4.830   9.445  19.176  0.00  0.00    -0.018 C 
HETATM   34  C   UNL     1       5.539   8.498  21.356  0.00  0.00     0.056 C 
HETATM   35  C   UNL     1       4.680   8.031  18.652  0.00  0.00     0.054 C 
HETATM   36  C   UNL     1       4.367   7.043  19.759  0.00  0.00    -0.026 C 
HETATM   37  C   UNL     1       4.713   7.281  21.041  0.00  0.00    -0.020 C 
HETATM   38  O   UNL     1       7.092  10.702  24.384  0.00  0.00    -0.266 OA
ENDBRANCH   1  28
BRANCH   3  39
HETATM   39  N   UNL     1       9.283  14.534  21.331  0.00  0.00    -0.231 N 
HETATM   40  H   UNL     1       9.108  14.593  20.338  0.00  0.00     0.174 HD
HETATM   41  H   UNL     1      10.114  14.055  21.642  0.00  0.00     0.174 HD
ENDBRANCH   3  39
TORSDOF 5
ENDMDL
MODEL 8
REMARK VINA RESULT:    -9.809      2.904      6.132
REMARK INTER + INTRA:         -13.046
REMARK INTER:                 -12.389
REMARK INTRA:                  -0.656
REMARK UNBOUND:                -0.656
REMARK  5 active torsions:
REMARK  status: ('A' for Active; 'I' for Inactive)
REMARK       I    between atoms: N_8  and  C_10 
REMARK    1  A    between atoms: C_10  and  C_12 
REMARK    2  A    between atoms: C_14  and  N_15 
REMARK    3  A    between atoms: C_21  and  C_23 
REMARK    4  A    between atoms: C_28  and  S_29 
REMARK    5  A    between atoms: S_29  and  N_32 
ROOT
HETATM    1  C   UNL     1      11.709  11.764  22.024  0.00  0.00     0.156 A 
HETATM    2  N   UNL     1      12.823  11.436  21.312  0.00  0.00    -0.057 NA
HETATM    3  C   UNL     1      12.764  11.618  20.002  0.00  0.00     0.721 A 
HETATM    4  N   UNL     1      11.690  12.098  19.375  0.00  0.00    -0.063 NA
HETATM    5  C   UNL     1      10.589  12.427  20.093  0.00  0.00     0.088 A 
HETATM    6  C   UNL     1      10.514  12.322  21.475  0.00  0.00     0.029 A 
HETATM    7  C   UNL     1       9.444  12.874  19.430  0.00  0.00     0.034 A 
HETATM    8  C   UNL     1       8.228  13.234  20.080  0.00  0.00     0.014 A 
HETATM    9  C   UNL     1       8.086  13.191  21.470  0.00  0.00    -0.023 A 
HETATM   10  C   UNL     1       9.270  12.758  22.139  0.00  0.00     0.028 A 
ENDROOT
BRANCH   9  11
HETATM   11  C   UNL     1       6.823  13.662  22.196  0.00  0.00    -0.003 A 
HETATM   12  C   UNL     1       6.752  15.014  22.625  0.00  0.00     0.014 A 
HETATM   13  C   UNL     1       5.622  15.588  23.266  0.00  0.00     0.001 A 
HETATM   14  C   UNL     1       4.457  14.875  23.445  0.00  0.00     0.002 A 
HETATM   15  C   UNL     1       4.475  13.533  23.068  0.00  0.00     0.026 A 
HETATM   16  C   UNL     1       5.644  12.925  22.509  0.00  0.00     0.090 A 
BRANCH  16  17
HETATM   17  S   UNL     1       5.522  11.147  22.613  0.00  0.00     0.261 S 
HETATM   18  O   UNL     1       4.134  10.773  22.498  0.00  0.00    -0.200 OA
HETATM   19  O   UNL     1       6.555  10.492  21.853  0.00  0.00    -0.200 OA
BRANCH  17  20
HETATM   20  N   UNL     1       6.001  10.914  24.237  0.00  0.00    -0.303 N 
HETATM   21  C   UNL     1       4.958  11.094  25.275  0.00  0.00     0.163 C 
HETATM   22  C   UNL     1       5.002  12.444  26.008  0.00  0.00     0.255 C 
HETATM   23  N   UNL     1       6.390  13.017  26.257  0.00  0.00    -0.072 N 
HETATM   24  H   UNL     1       6.699  12.627  27.156  0.00  0.00     0.279 HD
HETATM   25  C   UNL     1       6.345  14.522  26.430  0.00  0.00     0.269 C 
HETATM   26  C   UNL     1       7.459  12.683  25.229  0.00  0.00     0.255 C 
HETATM   27  C   UNL     1       7.366  11.271  24.656  0.00  0.00     0.163 C 
ENDBRANCH  17  20
ENDBRANCH  16  17
ENDBRANCH   9  11
BRANCH   1  28
HETATM   28  C   UNL     1      11.731  11.265  23.450  0.00  0.00     0.274 C 
HETATM   29  N   UNL     1      12.544  11.850  24.419  0.00  0.00    -0.342 N 
HETATM   30  C   UNL     1      13.326  13.081  24.333  0.00  0.00     0.161 C 
HETATM   31  C   UNL     1      12.620  11.294  25.770  0.00  0.00     0.139 C 
HETATM   32  C   UNL     1      13.343  13.549  25.763  0.00  0.00    -0.056 C 
HETATM   33  C   UNL     1      13.846  14.684  26.279  0.00  0.00    -0.018 C 
HETATM   34  C   UNL     1      12.694  12.522  26.667  0.00  0.00     0.056 C 
HETATM   35  C   UNL     1      13.869  14.899  27.779  0.00  0.00     0.054 C 
HETATM   36  C   UNL     1      13.871  13.589  28.542  0.00  0.00    -0.026 C 
HETATM   37  C   UNL     1      13.375  12.455  28.006  0.00  0.00    -0.020 C 
HETATM   38  O   UNL     1      11.038  10.280  23.724  0.00  0.00    -0.266 OA
ENDBRANCH   1  28
BRANCH   3  39
HETATM   39  N   UNL     1      13.870  11.263  19.263  0.00  0.00    -0.231 N 
HETATM   40  H   UNL     1      14.696  11.806  19.473  0.00  0.00     0.174 HD
HETATM   41  H   UNL     1      13.666  11.059  18.297  0.00  0.00     0.174 HD
ENDBRANCH   3  39
TORSDOF 5
ENDMDL
MODEL 9
REMARK VINA RESULT:    -9.781      2.621      5.360
REMARK INTER + INTRA:         -13.011
REMARK INTER:                 -11.501
REMARK INTRA:                  -1.510
REMARK UNBOUND:                -0.656
REMARK  5 active torsions:
REMARK  status: ('A' for Active; 'I' for Inactive)
REMARK       I    between atoms: N_8  and  C_10 
REMARK    1  A    between atoms: C_10  and  C_12 
REMARK    2  A    between atoms: C_14  and  N_15 
REMARK    3  A    between atoms: C_21  and  C_23 
REMARK    4  A    between atoms: C_28  and  S_29 
REMARK    5  A    between atoms: S_29  and  N_32 
ROOT
HETATM    1  C   UNL     1       4.299  11.632  23.822  0.00  0.00     0.156 A 
HETATM    2  N   UNL     1       3.025  11.451  24.270  0.00  0.00    -0.057 NA
HETATM    3  C   UNL     1       2.289  12.540  24.417  0.00  0.00     0.721 A 
HETATM    4  N   UNL     1       2.733  13.769  24.150  0.00  0.00    -0.063 NA
HETATM    5  C   UNL     1       3.999  13.938  23.700  0.00  0.00     0.088 A 
HETATM    6  C   UNL     1       4.877  12.889  23.466  0.00  0.00     0.029 A 
HETATM    7  C   UNL     1       4.483  15.229  23.477  0.00  0.00     0.034 A 
HETATM    8  C   UNL     1       5.799  15.526  23.019  0.00  0.00     0.014 A 
HETATM    9  C   UNL     1       6.728  14.524  22.724  0.00  0.00    -0.023 A 
HETATM   10  C   UNL     1       6.215  13.208  22.930  0.00  0.00     0.028 A 
ENDROOT
BRANCH   9  11
HETATM   11  C   UNL     1       8.114  14.814  22.141  0.00  0.00    -0.003 A 
HETATM   12  C   UNL     1       8.280  14.764  20.731  0.00  0.00     0.014 A 
HETATM   13  C   UNL     1       9.498  15.058  20.062  0.00  0.00     0.001 A 
HETATM   14  C   UNL     1      10.607  15.503  20.748  0.00  0.00     0.002 A 
HETATM   15  C   UNL     1      10.512  15.547  22.138  0.00  0.00     0.026 A 
HETATM   16  C   UNL     1       9.316  15.160  22.822  0.00  0.00     0.090 A 
BRANCH  16  17
HETATM   17  S   UNL     1       9.669  14.841  24.544  0.00  0.00     0.261 S 
HETATM   18  O   UNL     1      11.014  15.276  24.827  0.00  0.00    -0.200 OA
HETATM   19  O   UNL     1       8.559  15.188  25.393  0.00  0.00    -0.200 OA
BRANCH  17  20
HETATM   20  N   UNL     1       9.656  13.132  24.534  0.00  0.00    -0.303 N 
HETATM   21  C   UNL     1       9.539  12.456  25.848  0.00  0.00     0.163 C 
HETATM   22  C   UNL     1      10.861  11.917  26.418  0.00  0.00     0.255 C 
HETATM   23  N   UNL     1      11.848  11.369  25.396  0.00  0.00    -0.072 N 
HETATM   24  H   UNL     1      11.607  10.377  25.276  0.00  0.00     0.279 HD
HETATM   25  C   UNL     1      13.269  11.409  25.922  0.00  0.00     0.269 C 
HETATM   26  C   UNL     1      11.827  12.009  24.017  0.00  0.00     0.255 C 
HETATM   27  C   UNL     1      10.437  12.401  23.523  0.00  0.00     0.163 C 
ENDBRANCH  17  20
ENDBRANCH  16  17
ENDBRANCH   9  11
BRANCH   1  28
HETATM   28  C   UNL     1       5.170  10.404  23.954  0.00  0.00     0.274 C 
HETATM   29  N   UNL     1       4.965   9.272  23.167  0.00  0.00    -0.342 N 
HETATM   30  C   UNL     1       4.083   9.109  22.015  0.00  0.00     0.161 C 
HETATM   31  C   UNL     1       5.759   8.061  23.374  0.00  0.00     0.139 C 
HETATM   32  C   UNL     1       4.801   8.061  21.209  0.00  0.00    -0.056 C 
HETATM   33  C   UNL     1       4.501   7.570  19.992  0.00  0.00    -0.018 C 
HETATM   34  C   UNL     1       6.005   7.540  21.964  0.00  0.00     0.056 C 
HETATM   35  C   UNL     1       5.295   6.416  19.415  0.00  0.00     0.054 C 
HETATM   36  C   UNL     1       5.940   5.571  20.495  0.00  0.00    -0.026 C 
HETATM   37  C   UNL     1       6.223   6.073  21.715  0.00  0.00    -0.020 C 
HETATM   38  O   UNL     1       6.046  10.413  24.824  0.00  0.00    -0.266 OA
ENDBRANCH   1  28
BRANCH   3  39
HETATM   39  N   UNL     1       1.008  12.378  24.897  0.00  0.00    -0.231 N 
HETATM   40  H   UNL     1       0.333  13.007  24.487  0.00  0.00     0.174 HD
HETATM   41  H   UNL     1       0.964  12.214  25.892  0.00  0.00     0.174 HD
ENDBRANCH   3  39
TORSDOF 5
ENDMDL
