MODEL 1
REMARK VINA RESULT:    -9.852      0.000      0.000
REMARK INTER + INTRA:         -16.835
REMARK INTER:                 -12.266
REMARK INTRA:                  -4.569
REMARK UNBOUND:                -2.951
REMARK  8 active torsions:
REMARK  status: ('A' for Active; 'I' for Inactive)
REMARK    1  A    between atoms: C_7  and  N_8 
REMARK    2  A    between atoms: C_14  and  C_15 
REMARK    3  A    between atoms: C_17  and  C_18 
REMARK       I    between atoms: C_18  and  N_20 
REMARK    4  A    between atoms: N_20  and  C_22 
REMARK    5  A    between atoms: C_22  and  C_23 
REMARK    6  A    between atoms: C_28  and  C_29 
REMARK    7  A    between atoms: C_35  and  O_36 
REMARK    8  A    between atoms: C_38  and  O_39 
ROOT
HETATM    1  C   UNL     1       8.378   9.989  23.888  0.00  0.00     0.046 C 
HETATM    2  C   UNL     1       8.590  10.985  24.864  0.00  0.00     0.038 C 
HETATM    3  C   UNL     1       9.613  11.937  24.781  0.00  0.00     0.066 C 
HETATM    4  C   UNL     1      10.480  11.863  23.689  0.00  0.00     0.084 C 
HETATM    5  C   UNL     1      10.274  10.920  22.682  0.00  0.00     0.075 C 
HETATM    6  C   UNL     1       9.186  10.039  22.753  0.00  0.00     0.082 C 
ENDROOT
BRANCH   3   7
HETATM    7  C   UNL     1       9.657  13.117  25.703  0.00  0.00     0.256 C 
HETATM    8  O   UNL     1      10.710  13.283  26.322  0.00  0.00    -0.267 OA
HETATM    9  N   UNL     1       8.581  14.006  25.810  0.00  0.00    -0.348 N 
HETATM   10  C   UNL     1       8.826  15.306  26.424  0.00  0.00     0.153 C 
BRANCH   9  11
HETATM   11  C   UNL     1       7.185  13.577  25.705  0.00  0.00     0.165 C 
BRANCH  11  12
HETATM   12  C   UNL     1       6.171  14.598  25.203  0.00  0.00    -0.029 A 
HETATM   13  C   UNL     1       5.154  15.061  26.071  0.00  0.00     0.010 A 
HETATM   14  C   UNL     1       4.123  15.884  25.626  0.00  0.00     0.001 A 
HETATM   15  C   UNL     1       4.093  16.279  24.301  0.00  0.00     0.001 A 
HETATM   16  C   UNL     1       5.126  15.897  23.441  0.00  0.00     0.013 A 
HETATM   17  C   UNL     1       6.192  15.062  23.855  0.00  0.00    -0.017 A 
BRANCH  17  18
HETATM   18  C   UNL     1       7.228  14.679  22.854  0.00  0.00    -0.008 A 
HETATM   19  C   UNL     1       7.009  13.644  21.931  0.00  0.00     0.015 A 
HETATM   20  C   UNL     1       8.016  13.230  21.058  0.00  0.00     0.020 A 
HETATM   21  C   UNL     1       9.248  13.851  21.134  0.00  0.00     0.116 A 
HETATM   22  N   UNL     1       9.494  14.897  21.943  0.00  0.00    -0.272 NA
HETATM   23  C   UNL     1       8.473  15.303  22.739  0.00  0.00     0.128 A 
ENDBRANCH  17  18
ENDBRANCH  11  12
ENDBRANCH   9  11
ENDBRANCH   3   7
BRANCH   4  24
HETATM   24  O   UNL     1      11.521  12.734  23.500  0.00  0.00    -0.360 OA
HETATM   25  H   UNL     1      12.136  12.326  22.850  0.00  0.00     0.217 HD
ENDBRANCH   4  24
BRANCH   1  26
HETATM   26  C   UNL     1       7.230   9.068  24.173  0.00  0.00     0.172 A 
HETATM   27  N   UNL     1       5.881   9.316  24.055  0.00  0.00    -0.244 N 
HETATM   28  C   UNL     1       5.246   8.179  24.520  0.00  0.00     0.349 A 
HETATM   29  O   UNL     1       4.054   7.946  24.656  0.00  0.00    -0.245 OA
HETATM   30  N   UNL     1       6.266   7.282  24.804  0.00  0.00    -0.226 N 
HETATM   31  H   UNL     1       6.155   6.342  25.154  0.00  0.00     0.194 HD
HETATM   32  N   UNL     1       7.480   7.851  24.600  0.00  0.00    -0.151 NA
BRANCH  27  33
HETATM   33  C   UNL     1       5.185  10.472  23.673  0.00  0.00     0.051 C 
HETATM   34  C   UNL     1       4.520  11.298  24.595  0.00  0.00    -0.035 C 
HETATM   35  C   UNL     1       4.820  11.248  26.068  0.00  0.00     0.050 C 
HETATM   36  C   UNL     1       3.636  12.273  24.105  0.00  0.00     0.009 C 
HETATM   37  C   UNL     1       3.478  12.469  22.732  0.00  0.00     0.001 C 
HETATM   38  C   UNL     1       4.250  11.751  21.827  0.00  0.00     0.002 C 
HETATM   39  C   UNL     1       5.103  10.752  22.297  0.00  0.00     0.031 C 
ENDBRANCH  27  33
ENDBRANCH   1  26
BRANCH   6  40
HETATM   40  O   UNL     1       8.865   9.340  21.630  0.00  0.00    -0.360 OA
HETATM   41  H   UNL     1       9.171   8.421  21.703  0.00  0.00     0.217 HD
ENDBRANCH   6  40
TORSDOF 8
ENDMDL
MODEL 2
REMARK VINA RESULT:    -9.804      2.575      5.900
REMARK INTER + INTRA:         -16.767
REMARK INTER:                 -12.790
REMARK INTRA:                  -3.978
REMARK UNBOUND:                -2.951
REMARK  8 active torsions:
REMARK  status: ('A' for Active; 'I' for Inactive)
REMARK    1  A    between atoms: C_7  and  N_8 
REMARK    2  A    between atoms: C_14  and  C_15 
REMARK    3  A    between atoms: C_17  and  C_18 
REMARK       I    between atoms: C_18  and  N_20 
REMARK    4  A    between atoms: N_20  and  C_22 
REMARK    5  A    between atoms: C_22  and  C_23 
REMARK    6  A    between atoms: C_28  and  C_29 
REMARK    7  A    between atoms: C_35  and  O_36 
REMARK    8  A    between atoms: C_38  and  O_39 
ROOT
HETATM    1  C   UNL     1       8.013  12.025  25.037  0.00  0.00     0.046 C 
HETATM    2  C   UNL     1       6.877  11.193  24.949  0.00  0.00     0.038 C 
HETATM    3  C   UNL     1       5.641  11.515  25.521  0.00  0.00     0.066 C 
HETATM    4  C   UNL     1       5.553  12.707  26.244  0.00  0.00     0.084 C 
HETATM    5  C   UNL     1       6.642  13.576  26.315  0.00  0.00     0.075 C 
HETATM    6  C   UNL     1       7.838  13.264  25.653  0.00  0.00     0.082 C 
ENDROOT
BRANCH   3   7
HETATM    7  C   UNL     1       4.407  10.730  25.203  0.00  0.00     0.256 C 
HETATM    8  O   UNL     1       4.215   9.721  25.885  0.00  0.00    -0.267 OA
HETATM    9  N   UNL     1       3.499  11.153  24.225  0.00  0.00    -0.348 N 
HETATM   10  C   UNL     1       2.166  10.562  24.227  0.00  0.00     0.153 C 
BRANCH   9  11
HETATM   11  C   UNL     1       3.916  11.838  23.000  0.00  0.00     0.165 C 
BRANCH  11  12
HETATM   12  C   UNL     1       4.288  13.312  23.111  0.00  0.00    -0.029 A 
HETATM   13  C   UNL     1       5.591  13.735  22.756  0.00  0.00     0.010 A 
HETATM   14  C   UNL     1       6.026  15.040  22.969  0.00  0.00     0.001 A 
HETATM   15  C   UNL     1       5.161  15.961  23.530  0.00  0.00     0.001 A 
HETATM   16  C   UNL     1       3.846  15.589  23.821  0.00  0.00     0.013 A 
HETATM   17  C   UNL     1       3.365  14.273  23.617  0.00  0.00    -0.017 A 
BRANCH  17  18
HETATM   18  C   UNL     1       1.956  13.963  23.994  0.00  0.00    -0.008 A 
HETATM   19  C   UNL     1       1.527  14.007  25.330  0.00  0.00     0.015 A 
HETATM   20  C   UNL     1       0.231  13.627  25.684  0.00  0.00     0.020 A 
HETATM   21  C   UNL     1      -0.620  13.187  24.689  0.00  0.00     0.116 A 
HETATM   22  N   UNL     1      -0.292  13.195  23.385  0.00  0.00    -0.272 NA
HETATM   23  C   UNL     1       0.959  13.621  23.076  0.00  0.00     0.128 A 
ENDBRANCH  17  18
ENDBRANCH  11  12
ENDBRANCH   9  11
ENDBRANCH   3   7
BRANCH   4  24
HETATM   24  O   UNL     1       4.401  13.128  26.854  0.00  0.00    -0.360 OA
HETATM   25  H   UNL     1       3.656  12.612  26.472  0.00  0.00     0.217 HD
ENDBRANCH   4  24
BRANCH   1  26
HETATM   26  C   UNL     1       9.236  11.490  24.356  0.00  0.00     0.172 A 
HETATM   27  N   UNL     1       9.736  11.809  23.113  0.00  0.00    -0.244 N 
HETATM   28  C   UNL     1      10.826  10.980  22.921  0.00  0.00     0.349 A 
HETATM   29  O   UNL     1      11.558  10.861  21.949  0.00  0.00    -0.245 OA
HETATM   30  N   UNL     1      10.963  10.276  24.108  0.00  0.00    -0.226 N 
HETATM   31  H   UNL     1      11.671   9.588  24.317  0.00  0.00     0.194 HD
HETATM   32  N   UNL     1       9.967  10.591  24.973  0.00  0.00    -0.151 NA
BRANCH  27  33
HETATM   33  C   UNL     1       9.260  12.680  22.123  0.00  0.00     0.051 C 
HETATM   34  C   UNL     1       8.421  12.256  21.077  0.00  0.00    -0.035 C 
HETATM   35  C   UNL     1       7.655  10.964  21.146  0.00  0.00     0.050 C 
HETATM   36  C   UNL     1       8.211  13.124  19.993  0.00  0.00     0.009 C 
HETATM   37  C   UNL     1       8.760  14.407  19.988  0.00  0.00     0.001 C 
HETATM   38  C   UNL     1       9.464  14.874  21.092  0.00  0.00     0.002 C 
HETATM   39  C   UNL     1       9.714  14.011  22.159  0.00  0.00     0.031 C 
ENDBRANCH  27  33
ENDBRANCH   1  26
BRANCH   6  40
HETATM   40  O   UNL     1       8.761  14.254  25.516  0.00  0.00    -0.360 OA
HETATM   41  H   UNL     1       9.451  13.992  24.886  0.00  0.00     0.217 HD
ENDBRANCH   6  40
TORSDOF 8
ENDMDL
MODEL 3
REMARK VINA RESULT:    -9.644      2.463      6.480
REMARK INTER + INTRA:         -16.542
REMARK INTER:                 -13.896
REMARK INTRA:                  -2.645
REMARK UNBOUND:                -2.951
REMARK  8 active torsions:
REMARK  status: ('A' for Active; 'I' for Inactive)
REMARK    1  A    between atoms: C_7  and  N_8 
REMARK    2  A    between atoms: C_14  and  C_15 
REMARK    3  A    between atoms: C_17  and  C_18 
REMARK       I    between atoms: C_18  and  N_20 
REMARK    4  A    between atoms: N_20  and  C_22 
REMARK    5  A    between atoms: C_22  and  C_23 
REMARK    6  A    between atoms: C_28  and  C_29 
REMARK    7  A    between atoms: C_35  and  O_36 
REMARK    8  A    between atoms: C_38  and  O_39 
ROOT
HETATM    1  C   UNL     1       8.247  13.051  21.176  0.00  0.00     0.046 C 
HETATM    2  C   UNL     1       7.398  12.515  22.168  0.00  0.00     0.038 C 
HETATM    3  C   UNL     1       6.631  11.359  21.981  0.00  0.00     0.066 C 
HETATM    4  C   UNL     1       6.691  10.736  20.733  0.00  0.00     0.084 C 
HETATM    5  C   UNL     1       7.552  11.211  19.743  0.00  0.00     0.075 C 
HETATM    6  C   UNL     1       8.373  12.319  19.996  0.00  0.00     0.082 C 
ENDROOT
BRANCH   3   7
HETATM    7  C   UNL     1       5.936  10.691  23.127  0.00  0.00     0.256 C 
HETATM    8  O   UNL     1       6.415   9.618  23.501  0.00  0.00    -0.267 OA
HETATM    9  N   UNL     1       4.842  11.282  23.769  0.00  0.00    -0.348 N 
HETATM   10  C   UNL     1       4.459  10.773  25.080  0.00  0.00     0.153 C 
BRANCH   9  11
HETATM   11  C   UNL     1       3.847  12.089  23.057  0.00  0.00     0.165 C 
BRANCH  11  12
HETATM   12  C   UNL     1       3.870  13.595  23.287  0.00  0.00    -0.029 A 
HETATM   13  C   UNL     1       5.072  14.316  23.092  0.00  0.00     0.010 A 
HETATM   14  C   UNL     1       5.184  15.664  23.421  0.00  0.00     0.001 A 
HETATM   15  C   UNL     1       4.090  16.331  23.940  0.00  0.00     0.001 A 
HETATM   16  C   UNL     1       2.871  15.662  24.073  0.00  0.00     0.013 A 
HETATM   17  C   UNL     1       2.715  14.292  23.749  0.00  0.00    -0.017 A 
BRANCH  17  18
HETATM   18  C   UNL     1       1.383  13.657  23.961  0.00  0.00    -0.008 A 
HETATM   19  C   UNL     1       0.571  13.277  22.880  0.00  0.00     0.015 A 
HETATM   20  C   UNL     1      -0.712  12.768  23.085  0.00  0.00     0.020 A 
HETATM   21  C   UNL     1      -1.177  12.660  24.382  0.00  0.00     0.116 A 
HETATM   22  N   UNL     1      -0.419  12.934  25.459  0.00  0.00    -0.272 NA
HETATM   23  C   UNL     1       0.840  13.378  25.218  0.00  0.00     0.128 A 
ENDBRANCH  17  18
ENDBRANCH  11  12
ENDBRANCH   9  11
ENDBRANCH   3   7
BRANCH   4  24
HETATM   24  O   UNL     1       5.983   9.604  20.427  0.00  0.00    -0.360 OA
HETATM   25  H   UNL     1       6.141   8.951  21.146  0.00  0.00     0.217 HD
ENDBRANCH   4  24
BRANCH   1  26
HETATM   26  C   UNL     1       8.976  14.296  21.582  0.00  0.00     0.172 A 
HETATM   27  N   UNL     1       9.756  14.509  22.696  0.00  0.00    -0.244 N 
HETATM   28  C   UNL     1      10.125  15.841  22.649  0.00  0.00     0.349 A 
HETATM   29  O   UNL     1      10.774  16.503  23.445  0.00  0.00    -0.245 OA
HETATM   30  N   UNL     1       9.611  16.319  21.452  0.00  0.00    -0.226 N 
HETATM   31  H   UNL     1       9.706  17.258  21.093  0.00  0.00     0.194 HD
HETATM   32  N   UNL     1       8.894  15.360  20.817  0.00  0.00    -0.151 NA
BRANCH  27  33
HETATM   33  C   UNL     1      10.077  13.669  23.772  0.00  0.00     0.051 C 
HETATM   34  C   UNL     1       9.480  13.795  25.038  0.00  0.00    -0.035 C 
HETATM   35  C   UNL     1       8.194  14.549  25.240  0.00  0.00     0.050 C 
HETATM   36  C   UNL     1      10.045  13.096  26.118  0.00  0.00     0.009 C 
HETATM   37  C   UNL     1      11.129  12.239  25.925  0.00  0.00     0.001 C 
HETATM   38  C   UNL     1      11.621  12.005  24.646  0.00  0.00     0.002 C 
HETATM   39  C   UNL     1      11.095  12.720  23.570  0.00  0.00     0.031 C 
ENDBRANCH  27  33
ENDBRANCH   1  26
BRANCH   6  40
HETATM   40  O   UNL     1       9.384  12.569  19.119  0.00  0.00    -0.360 OA
HETATM   41  H   UNL     1       9.641  11.756  18.655  0.00  0.00     0.217 HD
ENDBRANCH   6  40
TORSDOF 8
ENDMDL
MODEL 4
REMARK VINA RESULT:    -9.511      2.436      6.420
REMARK INTER + INTRA:         -16.355
REMARK INTER:                 -13.474
REMARK INTRA:                  -2.881
REMARK UNBOUND:                -2.951
REMARK  8 active torsions:
REMARK  status: ('A' for Active; 'I' for Inactive)
REMARK    1  A    between atoms: C_7  and  N_8 
REMARK    2  A    between atoms: C_14  and  C_15 
REMARK    3  A    between atoms: C_17  and  C_18 
REMARK       I    between atoms: C_18  and  N_20 
REMARK    4  A    between atoms: N_20  and  C_22 
REMARK    5  A    between atoms: C_22  and  C_23 
REMARK    6  A    between atoms: C_28  and  C_29 
REMARK    7  A    between atoms: C_35  and  O_36 
REMARK    8  A    between atoms: C_38  and  O_39 
ROOT
HETATM    1  C   UNL     1       8.427  13.197  21.007  0.00  0.00     0.046 C 
HETATM    2  C   UNL     1       7.546  12.611  21.940  0.00  0.00     0.038 C 
HETATM    3  C   UNL     1       6.795  11.461  21.671  0.00  0.00     0.066 C 
HETATM    4  C   UNL     1       6.907  10.897  20.398  0.00  0.00     0.084 C 
HETATM    5  C   UNL     1       7.801  11.422  19.465  0.00  0.00     0.075 C 
HETATM    6  C   UNL     1       8.604  12.522  19.800  0.00  0.00     0.082 C 
ENDROOT
BRANCH   3   7
HETATM    7  C   UNL     1       6.063  10.736  22.758  0.00  0.00     0.256 C 
HETATM    8  O   UNL     1       6.510   9.630  23.069  0.00  0.00    -0.267 OA
HETATM    9  N   UNL     1       4.969  11.310  23.416  0.00  0.00    -0.348 N 
HETATM   10  C   UNL     1       4.549  10.725  24.684  0.00  0.00     0.153 C 
BRANCH   9  11
HETATM   11  C   UNL     1       4.008  12.184  22.740  0.00  0.00     0.165 C 
BRANCH  11  12
HETATM   12  C   UNL     1       3.967  13.647  23.166  0.00  0.00    -0.029 A 
HETATM   13  C   UNL     1       5.143  14.431  23.091  0.00  0.00     0.010 A 
HETATM   14  C   UNL     1       5.198  15.727  23.597  0.00  0.00     0.001 A 
HETATM   15  C   UNL     1       4.070  16.278  24.177  0.00  0.00     0.001 A 
HETATM   16  C   UNL     1       2.877  15.553  24.197  0.00  0.00     0.013 A 
HETATM   17  C   UNL     1       2.779  14.234  23.692  0.00  0.00    -0.017 A 
BRANCH  17  18
HETATM   18  C   UNL     1       1.470  13.527  23.792  0.00  0.00    -0.008 A 
HETATM   19  C   UNL     1       0.658  13.324  22.665  0.00  0.00     0.015 A 
HETATM   20  C   UNL     1      -0.606  12.744  22.781  0.00  0.00     0.020 A 
HETATM   21  C   UNL     1      -1.052  12.387  24.039  0.00  0.00     0.116 A 
HETATM   22  N   UNL     1      -0.291  12.485  25.143  0.00  0.00    -0.272 NA
HETATM   23  C   UNL     1       0.951  13.006  24.981  0.00  0.00     0.128 A 
ENDBRANCH  17  18
ENDBRANCH  11  12
ENDBRANCH   9  11
ENDBRANCH   3   7
BRANCH   4  24
HETATM   24  O   UNL     1       6.221   9.775  20.014  0.00  0.00    -0.360 OA
HETATM   25  H   UNL     1       5.414  10.070  19.534  0.00  0.00     0.217 HD
ENDBRANCH   4  24
BRANCH   1  26
HETATM   26  C   UNL     1       9.131  14.427  21.498  0.00  0.00     0.172 A 
HETATM   27  N   UNL     1       9.553  14.723  22.774  0.00  0.00    -0.244 N 
HETATM   28  C   UNL     1      10.063  16.006  22.715  0.00  0.00     0.349 A 
HETATM   29  O   UNL     1      10.507  16.715  23.606  0.00  0.00    -0.245 OA
HETATM   30  N   UNL     1       9.996  16.364  21.376  0.00  0.00    -0.226 N 
HETATM   31  H   UNL     1      10.298  17.240  20.975  0.00  0.00     0.194 HD
HETATM   32  N   UNL     1       9.405  15.387  20.645  0.00  0.00    -0.151 NA
BRANCH  27  33
HETATM   33  C   UNL     1       9.435  14.007  23.974  0.00  0.00     0.051 C 
HETATM   34  C   UNL     1      10.286  12.938  24.307  0.00  0.00    -0.035 C 
HETATM   35  C   UNL     1      11.608  12.731  23.622  0.00  0.00     0.050 C 
HETATM   36  C   UNL     1       9.935  12.114  25.390  0.00  0.00     0.009 C 
HETATM   37  C   UNL     1       8.808  12.394  26.164  0.00  0.00     0.001 C 
HETATM   38  C   UNL     1       8.055  13.536  25.921  0.00  0.00     0.002 C 
HETATM   39  C   UNL     1       8.368  14.342  24.827  0.00  0.00     0.031 C 
ENDBRANCH  27  33
ENDBRANCH   1  26
BRANCH   6  40
HETATM   40  O   UNL     1       9.645  12.819  18.975  0.00  0.00    -0.360 OA
HETATM   41  H   UNL     1       9.429  12.587  18.057  0.00  0.00     0.217 HD
ENDBRANCH   6  40
TORSDOF 8
ENDMDL
MODEL 5
REMARK VINA RESULT:    -9.216      2.196      4.827
REMARK INTER + INTRA:         -15.939
REMARK INTER:                 -13.185
REMARK INTRA:                  -2.755
REMARK UNBOUND:                -2.951
REMARK  8 active torsions:
REMARK  status: ('A' for Active; 'I' for Inactive)
REMARK    1  A    between atoms: C_7  and  N_8 
REMARK    2  A    between atoms: C_14  and  C_15 
REMARK    3  A    between atoms: C_17  and  C_18 
REMARK       I    between atoms: C_18  and  N_20 
REMARK    4  A    between atoms: N_20  and  C_22 
REMARK    5  A    between atoms: C_22  and  C_23 
REMARK    6  A    between atoms: C_28  and  C_29 
REMARK    7  A    between atoms: C_35  and  O_36 
REMARK    8  A    between atoms: C_38  and  O_39 
ROOT
HETATM    1  C   UNL     1       6.726  11.909  21.465  0.00  0.00     0.046 C 
HETATM    2  C   UNL     1       7.367  13.023  22.047  0.00  0.00     0.038 C 
HETATM    3  C   UNL     1       8.534  13.596  21.528  0.00  0.00     0.066 C 
HETATM    4  C   UNL     1       9.100  13.003  20.398  0.00  0.00     0.084 C 
HETATM    5  C   UNL     1       8.471  11.929  19.769  0.00  0.00     0.075 C 
HETATM    6  C   UNL     1       7.254  11.437  20.264  0.00  0.00     0.082 C 
ENDROOT
BRANCH   3   7
HETATM    7  C   UNL     1       9.045  14.912  22.028  0.00  0.00     0.256 C 
HETATM    8  O   UNL     1       8.557  15.917  21.505  0.00  0.00    -0.267 OA
HETATM    9  N   UNL     1       9.980  14.991  23.066  0.00  0.00    -0.348 N 
HETATM   10  C   UNL     1      10.148  16.273  23.741  0.00  0.00     0.153 C 
BRANCH   9  11
HETATM   11  C   UNL     1      11.047  14.004  23.247  0.00  0.00     0.165 C 
BRANCH  11  12
HETATM   12  C   UNL     1      10.655  12.641  23.805  0.00  0.00    -0.029 A 
HETATM   13  C   UNL     1      10.654  11.510  22.954  0.00  0.00     0.010 A 
HETATM   14  C   UNL     1      10.173  10.273  23.373  0.00  0.00     0.001 A 
HETATM   15  C   UNL     1       9.694  10.131  24.662  0.00  0.00     0.001 A 
HETATM   16  C   UNL     1       9.752  11.212  25.545  0.00  0.00     0.013 A 
HETATM   17  C   UNL     1      10.235  12.486  25.159  0.00  0.00    -0.017 A 
BRANCH  17  18
HETATM   18  C   UNL     1      10.224  13.588  26.163  0.00  0.00    -0.008 A 
HETATM   19  C   UNL     1      11.333  13.843  26.986  0.00  0.00     0.015 A 
HETATM   20  C   UNL     1      11.281  14.816  27.984  0.00  0.00     0.020 A 
HETATM   21  C   UNL     1      10.104  15.516  28.160  0.00  0.00     0.116 A 
HETATM   22  N   UNL     1       9.036  15.371  27.356  0.00  0.00    -0.272 NA
HETATM   23  C   UNL     1       9.143  14.451  26.364  0.00  0.00     0.128 A 
ENDBRANCH  17  18
ENDBRANCH  11  12
ENDBRANCH   9  11
ENDBRANCH   3   7
BRANCH   4  24
HETATM   24  O   UNL     1      10.243  13.469  19.802  0.00  0.00    -0.360 OA
HETATM   25  H   UNL     1      11.009  13.091  20.290  0.00  0.00     0.217 HD
ENDBRANCH   4  24
BRANCH   1  26
HETATM   26  C   UNL     1       5.491  11.453  22.182  0.00  0.00     0.172 A 
HETATM   27  N   UNL     1       4.771  12.109  23.154  0.00  0.00    -0.244 N 
HETATM   28  C   UNL     1       3.779  11.229  23.547  0.00  0.00     0.349 A 
HETATM   29  O   UNL     1       2.928  11.345  24.417  0.00  0.00    -0.245 OA
HETATM   30  N   UNL     1       3.916  10.129  22.714  0.00  0.00    -0.226 N 
HETATM   31  H   UNL     1       3.342   9.298  22.720  0.00  0.00     0.194 HD
HETATM   32  N   UNL     1       4.984  10.277  21.891  0.00  0.00    -0.151 NA
BRANCH  27  33
HETATM   33  C   UNL     1       4.975  13.350  23.774  0.00  0.00     0.051 C 
HETATM   34  C   UNL     1       5.549  13.476  25.051  0.00  0.00    -0.035 C 
HETATM   35  C   UNL     1       6.341  12.364  25.680  0.00  0.00     0.050 C 
HETATM   36  C   UNL     1       5.472  14.720  25.700  0.00  0.00     0.009 C 
HETATM   37  C   UNL     1       4.906  15.825  25.062  0.00  0.00     0.001 C 
HETATM   38  C   UNL     1       4.476  15.731  23.744  0.00  0.00     0.002 C 
HETATM   39  C   UNL     1       4.510  14.494  23.100  0.00  0.00     0.031 C 
ENDBRANCH  27  33
ENDBRANCH   1  26
BRANCH   6  40
HETATM   40  O   UNL     1       6.545  10.590  19.469  0.00  0.00    -0.360 OA
HETATM   41  H   UNL     1       7.095  10.272  18.734  0.00  0.00     0.217 HD
ENDBRANCH   6  40
TORSDOF 8
ENDMDL
MODEL 6
REMARK VINA RESULT:    -9.138      2.810      5.735
REMARK INTER + INTRA:         -15.829
REMARK INTER:                 -11.712
REMARK INTRA:                  -4.118
REMARK UNBOUND:                -2.951
REMARK  8 active torsions:
REMARK  status: ('A' for Active; 'I' for Inactive)
REMARK    1  A    between atoms: C_7  and  N_8 
REMARK    2  A    between atoms: C_14  and  C_15 
REMARK    3  A    between atoms: C_17  and  C_18 
REMARK       I    between atoms: C_18  and  N_20 
REMARK    4  A    between atoms: N_20  and  C_22 
REMARK    5  A    between atoms: C_22  and  C_23 
REMARK    6  A    between atoms: C_28  and  C_29 
REMARK    7  A    between atoms: C_35  and  O_36 
REMARK    8  A    between atoms: C_38  and  O_39 
ROOT
HETATM    1  C   UNL     1       6.246  14.867  25.174  0.00  0.00     0.046 C 
HETATM    2  C   UNL     1       6.476  14.794  23.784  0.00  0.00     0.038 C 
HETATM    3  C   UNL     1       7.755  14.768  23.216  0.00  0.00     0.066 C 
HETATM    4  C   UNL     1       8.849  14.856  24.079  0.00  0.00     0.084 C 
HETATM    5  C   UNL     1       8.662  14.885  25.461  0.00  0.00     0.075 C 
HETATM    6  C   UNL     1       7.369  14.818  25.999  0.00  0.00     0.082 C 
ENDROOT
BRANCH   3   7
HETATM    7  C   UNL     1       7.957  14.449  21.766  0.00  0.00     0.256 C 
HETATM    8  O   UNL     1       8.402  15.362  21.067  0.00  0.00    -0.267 OA
HETATM    9  N   UNL     1       7.708  13.171  21.254  0.00  0.00    -0.348 N 
HETATM   10  C   UNL     1       8.268  12.834  19.951  0.00  0.00     0.153 C 
BRANCH   9  11
HETATM   11  C   UNL     1       6.626  12.316  21.749  0.00  0.00     0.165 C 
BRANCH  11  12
HETATM   12  C   UNL     1       7.006  11.167  22.674  0.00  0.00    -0.029 A 
HETATM   13  C   UNL     1       7.709  11.436  23.873  0.00  0.00     0.010 A 
HETATM   14  C   UNL     1       8.202  10.416  24.683  0.00  0.00     0.001 A 
HETATM   15  C   UNL     1       7.990   9.099  24.322  0.00  0.00     0.001 A 
HETATM   16  C   UNL     1       7.236   8.805  23.183  0.00  0.00     0.013 A 
HETATM   17  C   UNL     1       6.717   9.813  22.334  0.00  0.00    -0.017 A 
BRANCH  17  18
HETATM   18  C   UNL     1       5.955   9.400  21.120  0.00  0.00    -0.008 A 
HETATM   19  C   UNL     1       5.145   8.253  21.117  0.00  0.00     0.015 A 
HETATM   20  C   UNL     1       4.508   7.823  19.952  0.00  0.00     0.020 A 
HETATM   21  C   UNL     1       4.708   8.542  18.790  0.00  0.00     0.116 A 
HETATM   22  N   UNL     1       5.409   9.689  18.747  0.00  0.00    -0.272 NA
HETATM   23  C   UNL     1       5.969  10.102  19.912  0.00  0.00     0.128 A 
ENDBRANCH  17  18
ENDBRANCH  11  12
ENDBRANCH   9  11
ENDBRANCH   3   7
BRANCH   4  24
HETATM   24  O   UNL     1      10.148  14.846  23.643  0.00  0.00    -0.360 OA
HETATM   25  H   UNL     1      10.698  14.451  24.355  0.00  0.00     0.217 HD
ENDBRANCH   4  24
BRANCH   1  26
HETATM   26  C   UNL     1       4.801  14.886  25.570  0.00  0.00     0.172 A 
HETATM   27  N   UNL     1       3.896  13.848  25.566  0.00  0.00    -0.244 N 
HETATM   28  C   UNL     1       2.684  14.403  25.934  0.00  0.00     0.349 A 
HETATM   29  O   UNL     1       1.580  13.887  26.021  0.00  0.00    -0.245 OA
HETATM   30  N   UNL     1       2.964  15.730  26.224  0.00  0.00    -0.226 N 
HETATM   31  H   UNL     1       2.303  16.426  26.538  0.00  0.00     0.194 HD
HETATM   32  N   UNL     1       4.267  16.013  25.980  0.00  0.00    -0.151 NA
BRANCH  27  33
HETATM   33  C   UNL     1       4.031  12.508  25.178  0.00  0.00     0.051 C 
HETATM   34  C   UNL     1       3.530  12.014  23.961  0.00  0.00    -0.035 C 
HETATM   35  C   UNL     1       3.172  12.926  22.820  0.00  0.00     0.050 C 
HETATM   36  C   UNL     1       3.473  10.623  23.774  0.00  0.00     0.009 C 
HETATM   37  C   UNL     1       3.973   9.751  24.743  0.00  0.00     0.001 C 
HETATM   38  C   UNL     1       4.602  10.248  25.877  0.00  0.00     0.002 C 
HETATM   39  C   UNL     1       4.632  11.626  26.095  0.00  0.00     0.031 C 
ENDBRANCH  27  33
ENDBRANCH   1  26
BRANCH   6  40
HETATM   40  O   UNL     1       7.252  14.566  27.331  0.00  0.00    -0.360 OA
HETATM   41  H   UNL     1       6.328  14.380  27.563  0.00  0.00     0.217 HD
ENDBRANCH   6  40
TORSDOF 8
ENDMDL
MODEL 7
REMARK VINA RESULT:    -9.040      2.555      5.786
REMARK INTER + INTRA:         -15.691
REMARK INTER:                 -12.740
REMARK INTRA:                  -2.951
REMARK UNBOUND:                -2.951
REMARK  8 active torsions:
REMARK  status: ('A' for Active; 'I' for Inactive)
REMARK    1  A    between atoms: C_7  and  N_8 
REMARK    2  A    between atoms: C_14  and  C_15 
REMARK    3  A    between atoms: C_17  and  C_18 
REMARK       I    between atoms: C_18  and  N_20 
REMARK    4  A    between atoms: N_20  and  C_22 
REMARK    5  A    between atoms: C_22  and  C_23 
REMARK    6  A    between atoms: C_28  and  C_29 
REMARK    7  A    between atoms: C_35  and  O_36 
REMARK    8  A    between atoms: C_38  and  O_39 
ROOT
HETATM    1  C   UNL     1       8.577  10.802  22.888  0.00  0.00     0.046 C 
HETATM    2  C   UNL     1       7.281  10.629  23.419  0.00  0.00     0.038 C 
HETATM    3  C   UNL     1       6.143  10.449  22.625  0.00  0.00     0.066 C 
HETATM    4  C   UNL     1       6.308  10.479  21.239  0.00  0.00     0.084 C 
HETATM    5  C   UNL     1       7.579  10.603  20.678  0.00  0.00     0.075 C 
HETATM    6  C   UNL     1       8.708  10.691  21.504  0.00  0.00     0.082 C 
ENDROOT
BRANCH   3   7
HETATM    7  C   UNL     1       4.834  10.031  23.222  0.00  0.00     0.256 C 
HETATM    8  O   UNL     1       4.735   8.841  23.532  0.00  0.00    -0.267 OA
HETATM    9  N   UNL     1       3.808  10.952  23.462  0.00  0.00    -0.348 N 
HETATM   10  C   UNL     1       2.734  10.560  24.366  0.00  0.00     0.153 C 
BRANCH   9  11
HETATM   11  C   UNL     1       3.550  12.096  22.585  0.00  0.00     0.165 C 
BRANCH  11  12
HETATM   12  C   UNL     1       3.928  13.478  23.103  0.00  0.00    -0.029 A 
HETATM   13  C   UNL     1       5.237  13.973  22.891  0.00  0.00     0.010 A 
HETATM   14  C   UNL     1       5.676  15.164  23.462  0.00  0.00     0.001 A 
HETATM   15  C   UNL     1       4.810  15.901  24.248  0.00  0.00     0.001 A 
HETATM   16  C   UNL     1       3.490  15.474  24.413  0.00  0.00     0.013 A 
HETATM   17  C   UNL     1       3.004  14.269  23.849  0.00  0.00    -0.017 A 
BRANCH  17  18
HETATM   18  C   UNL     1       1.589  13.878  24.111  0.00  0.00    -0.008 A 
HETATM   19  C   UNL     1       1.089  13.771  25.418  0.00  0.00     0.015 A 
HETATM   20  C   UNL     1      -0.209  13.317  25.659  0.00  0.00     0.020 A 
HETATM   21  C   UNL     1      -0.989  12.954  24.578  0.00  0.00     0.116 A 
HETATM   22  N   UNL     1      -0.593  13.106  23.302  0.00  0.00    -0.272 NA
HETATM   23  C   UNL     1       0.656  13.600  23.109  0.00  0.00     0.128 A 
ENDBRANCH  17  18
ENDBRANCH  11  12
ENDBRANCH   9  11
ENDBRANCH   3   7
BRANCH   4  24
HETATM   24  O   UNL     1       5.270  10.320  20.358  0.00  0.00    -0.360 OA
HETATM   25  H   UNL     1       4.453  10.174  20.885  0.00  0.00     0.217 HD
ENDBRANCH   4  24
BRANCH   1  26
HETATM   26  C   UNL     1       9.655  10.982  23.914  0.00  0.00     0.172 A 
HETATM   27  N   UNL     1       9.666  11.815  25.010  0.00  0.00    -0.244 N 
HETATM   28  C   UNL     1      10.918  11.671  25.580  0.00  0.00     0.349 A 
HETATM   29  O   UNL     1      11.412  12.243  26.540  0.00  0.00    -0.245 OA
HETATM   30  N   UNL     1      11.547  10.686  24.834  0.00  0.00    -0.226 N 
HETATM   31  H   UNL     1      12.477  10.323  24.986  0.00  0.00     0.194 HD
HETATM   32  N   UNL     1      10.762  10.285  23.804  0.00  0.00    -0.151 NA
BRANCH  27  33
HETATM   33  C   UNL     1       8.721  12.740  25.476  0.00  0.00     0.051 C 
HETATM   34  C   UNL     1       8.894  14.130  25.356  0.00  0.00    -0.035 C 
HETATM   35  C   UNL     1       9.881  14.728  24.392  0.00  0.00     0.050 C 
HETATM   36  C   UNL     1       8.037  14.976  26.079  0.00  0.00     0.009 C 
HETATM   37  C   UNL     1       6.990  14.454  26.838  0.00  0.00     0.001 C 
HETATM   38  C   UNL     1       6.732  13.088  26.833  0.00  0.00     0.002 C 
HETATM   39  C   UNL     1       7.597  12.231  26.153  0.00  0.00     0.031 C 
ENDBRANCH  27  33
ENDBRANCH   1  26
BRANCH   6  40
HETATM   40  O   UNL     1       9.929  10.527  20.925  0.00  0.00    -0.360 OA
HETATM   41  H   UNL     1      10.566  11.164  21.287  0.00  0.00     0.217 HD
ENDBRANCH   6  40
TORSDOF 8
ENDMDL
MODEL 8
REMARK VINA RESULT:    -9.035      2.475      5.264
REMARK INTER + INTRA:         -15.684
REMARK INTER:                 -11.423
REMARK INTRA:                  -4.261
REMARK UNBOUND:                -2.951
REMARK  8 active torsions:
REMARK  status: ('A' for Active; 'I' for Inactive)
REMARK    1  A    between atoms: C_7  and  N_8 
REMARK    2  A    between atoms: C_14  and  C_15 
REMARK    3  A    between atoms: C_17  and  C_18 
REMARK       I    between atoms: C_18  and  N_20 
REMARK    4  A    between atoms: N_20  and  C_22 
REMARK    5  A    between atoms: C_22  and  C_23 
REMARK    6  A    between atoms: C_28  and  C_29 
REMARK    7  A    between atoms: C_35  and  O_36 
REMARK    8  A    between atoms: C_38  and  O_39 
ROOT
HETATM    1  C   UNL     1       4.619  11.465  22.753  0.00  0.00     0.046 C 
HETATM    2  C   UNL     1       5.670  12.174  22.135  0.00  0.00     0.038 C 
HETATM    3  C   UNL     1       6.814  11.556  21.615  0.00  0.00     0.066 C 
HETATM    4  C   UNL     1       6.921  10.171  21.754  0.00  0.00     0.084 C 
HETATM    5  C   UNL     1       5.882   9.431  22.318  0.00  0.00     0.075 C 
HETATM    6  C   UNL     1       4.712  10.074  22.747  0.00  0.00     0.082 C 
ENDROOT
BRANCH   3   7
HETATM    7  C   UNL     1       7.785  12.309  20.759  0.00  0.00     0.256 C 
HETATM    8  O   UNL     1       8.397  11.644  19.920  0.00  0.00    -0.267 OA
HETATM    9  N   UNL     1       7.945  13.694  20.873  0.00  0.00    -0.348 N 
HETATM   10  C   UNL     1       8.612  14.399  19.785  0.00  0.00     0.153 C 
BRANCH   9  11
HETATM   11  C   UNL     1       7.840  14.401  22.152  0.00  0.00     0.165 C 
BRANCH  11  12
HETATM   12  C   UNL     1       9.131  14.913  22.780  0.00  0.00    -0.029 A 
HETATM   13  C   UNL     1       9.501  16.269  22.615  0.00  0.00     0.010 A 
HETATM   14  C   UNL     1      10.732  16.755  23.046  0.00  0.00     0.001 A 
HETATM   15  C   UNL     1      11.621  15.898  23.668  0.00  0.00     0.001 A 
HETATM   16  C   UNL     1      11.251  14.573  23.910  0.00  0.00     0.013 A 
HETATM   17  C   UNL     1      10.008  14.041  23.489  0.00  0.00    -0.017 A 
BRANCH  17  18
HETATM   18  C   UNL     1       9.719  12.603  23.761  0.00  0.00    -0.008 A 
HETATM   19  C   UNL     1       8.773  12.214  24.723  0.00  0.00     0.015 A 
HETATM   20  C   UNL     1       8.574  10.869  25.036  0.00  0.00     0.020 A 
HETATM   21  C   UNL     1       9.344   9.922  24.389  0.00  0.00     0.116 A 
HETATM   22  N   UNL     1      10.210  10.227  23.406  0.00  0.00    -0.272 NA
HETATM   23  C   UNL     1      10.337  11.542  23.095  0.00  0.00     0.128 A 
ENDBRANCH  17  18
ENDBRANCH  11  12
ENDBRANCH   9  11
ENDBRANCH   3   7
BRANCH   4  24
HETATM   24  O   UNL     1       7.993   9.454  21.291  0.00  0.00    -0.360 OA
HETATM   25  H   UNL     1       7.702   8.969  20.486  0.00  0.00     0.217 HD
ENDBRANCH   4  24
BRANCH   1  26
HETATM   26  C   UNL     1       3.490  12.320  23.243  0.00  0.00     0.172 A 
HETATM   27  N   UNL     1       3.513  13.302  24.208  0.00  0.00    -0.244 N 
HETATM   28  C   UNL     1       2.204  13.724  24.348  0.00  0.00     0.349 A 
HETATM   29  O   UNL     1       1.722  14.542  25.118  0.00  0.00    -0.245 OA
HETATM   30  N   UNL     1       1.490  13.026  23.386  0.00  0.00    -0.226 N 
HETATM   31  H   UNL     1       0.500  13.102  23.202  0.00  0.00     0.194 HD
HETATM   32  N   UNL     1       2.294  12.155  22.726  0.00  0.00    -0.151 NA
BRANCH  27  33
HETATM   33  C   UNL     1       4.554  13.771  25.022  0.00  0.00     0.051 C 
HETATM   34  C   UNL     1       5.314  14.910  24.702  0.00  0.00    -0.035 C 
HETATM   35  C   UNL     1       4.838  15.929  23.705  0.00  0.00     0.050 C 
HETATM   36  C   UNL     1       6.495  15.151  25.423  0.00  0.00     0.009 C 
HETATM   37  C   UNL     1       6.867  14.322  26.483  0.00  0.00     0.001 C 
HETATM   38  C   UNL     1       6.035  13.287  26.890  0.00  0.00     0.002 C 
HETATM   39  C   UNL     1       4.879  13.010  26.160  0.00  0.00     0.031 C 
ENDBRANCH  27  33
ENDBRANCH   1  26
BRANCH   6  40
HETATM   40  O   UNL     1       3.630   9.296  23.025  0.00  0.00    -0.360 OA
HETATM   41  H   UNL     1       2.977   9.793  23.544  0.00  0.00     0.217 HD
ENDBRANCH   6  40
TORSDOF 8
ENDMDL
MODEL 9
REMARK VINA RESULT:    -8.953      2.340      6.014
REMARK INTER + INTRA:         -15.568
REMARK INTER:                 -12.642
REMARK INTRA:                  -2.926
REMARK UNBOUND:                -2.951
REMARK  8 active torsions:
REMARK  status: ('A' for Active; 'I' for Inactive)
REMARK    1  A    between atoms: C_7  and  N_8 
REMARK    2  A    between atoms: C_14  and  C_15 
REMARK    3  A    between atoms: C_17  and  C_18 
REMARK       I    between atoms: C_18  and  N_20 
REMARK    4  A    between atoms: N_20  and  C_22 
REMARK    5  A    between atoms: C_22  and  C_23 
REMARK    6  A    between atoms: C_28  and  C_29 
REMARK    7  A    between atoms: C_35  and  O_36 
REMARK    8  A    between atoms: C_38  and  O_39 
ROOT
HETATM    1  C   UNL     1       8.663  11.038  23.909  0.00  0.00     0.046 C 
HETATM    2  C   UNL     1       7.301  10.892  24.246  0.00  0.00     0.038 C 
HETATM    3  C   UNL     1       6.359  10.295  23.400  0.00  0.00     0.066 C 
HETATM    4  C   UNL     1       6.797   9.860  22.147  0.00  0.00     0.084 C 
HETATM    5  C   UNL     1       8.144   9.947  21.797  0.00  0.00     0.075 C 
HETATM    6  C   UNL     1       9.076  10.468  22.705  0.00  0.00     0.082 C 
ENDROOT
BRANCH   3   7
HETATM    7  C   UNL     1       4.987   9.943  23.886  0.00  0.00     0.256 C 
HETATM    8  O   UNL     1       4.858   8.821  24.381  0.00  0.00    -0.267 OA
HETATM    9  N   UNL     1       3.930  10.858  23.830  0.00  0.00    -0.348 N 
HETATM   10  C   UNL     1       2.748  10.591  24.642  0.00  0.00     0.153 C 
BRANCH   9  11
HETATM   11  C   UNL     1       3.779  11.829  22.743  0.00  0.00     0.165 C 
BRANCH  11  12
HETATM   12  C   UNL     1       4.088  13.288  23.057  0.00  0.00    -0.029 A 
HETATM   13  C   UNL     1       5.395  13.788  22.849  0.00  0.00     0.010 A 
HETATM   14  C   UNL     1       5.766  15.069  23.248  0.00  0.00     0.001 A 
HETATM   15  C   UNL     1       4.833  15.890  23.852  0.00  0.00     0.001 A 
HETATM   16  C   UNL     1       3.516  15.448  24.002  0.00  0.00     0.013 A 
HETATM   17  C   UNL     1       3.098  14.154  23.609  0.00  0.00    -0.017 A 
BRANCH  17  18
HETATM   18  C   UNL     1       1.679  13.760  23.843  0.00  0.00    -0.008 A 
HETATM   19  C   UNL     1       1.117  13.774  25.130  0.00  0.00     0.015 A 
HETATM   20  C   UNL     1      -0.182  13.318  25.355  0.00  0.00     0.020 A 
HETATM   21  C   UNL     1      -0.903  12.831  24.281  0.00  0.00     0.116 A 
HETATM   22  N   UNL     1      -0.448  12.863  23.016  0.00  0.00    -0.272 NA
HETATM   23  C   UNL     1       0.800  13.362  22.832  0.00  0.00     0.128 A 
ENDBRANCH  17  18
ENDBRANCH  11  12
ENDBRANCH   9  11
ENDBRANCH   3   7
BRANCH   4  24
HETATM   24  O   UNL     1       5.969   9.267  21.230  0.00  0.00    -0.360 OA
HETATM   25  H   UNL     1       6.397   8.429  20.942  0.00  0.00     0.217 HD
ENDBRANCH   4  24
BRANCH   1  26
HETATM   26  C   UNL     1       9.499  11.707  24.958  0.00  0.00     0.172 A 
HETATM   27  N   UNL     1      10.153  12.916  24.891  0.00  0.00    -0.244 N 
HETATM   28  C   UNL     1      10.849  13.035  26.080  0.00  0.00     0.349 A 
HETATM   29  O   UNL     1      11.611  13.912  26.458  0.00  0.00    -0.245 OA
HETATM   30  N   UNL     1      10.490  11.922  26.825  0.00  0.00    -0.226 N 
HETATM   31  H   UNL     1      10.808  11.697  27.757  0.00  0.00     0.194 HD
HETATM   32  N   UNL     1       9.672  11.108  26.113  0.00  0.00    -0.151 NA
BRANCH  27  33
HETATM   33  C   UNL     1      10.261  13.851  23.851  0.00  0.00     0.051 C 
HETATM   34  C   UNL     1       9.451  14.998  23.773  0.00  0.00    -0.035 C 
HETATM   35  C   UNL     1       8.702  15.524  24.966  0.00  0.00     0.050 C 
HETATM   36  C   UNL     1       9.441  15.730  22.575  0.00  0.00     0.009 C 
HETATM   37  C   UNL     1      10.270  15.372  21.511  0.00  0.00     0.001 C 
HETATM   38  C   UNL     1      11.176  14.328  21.648  0.00  0.00     0.002 C 
HETATM   39  C   UNL     1      11.171  13.567  22.817  0.00  0.00     0.031 C 
ENDBRANCH  27  33
ENDBRANCH   1  26
BRANCH   6  40
HETATM   40  O   UNL     1      10.396  10.276  22.436  0.00  0.00    -0.360 OA
HETATM   41  H   UNL     1      10.934  10.970  22.851  0.00  0.00     0.217 HD
ENDBRANCH   6  40
TORSDOF 8
ENDMDL
