REMARK  8 active torsions:
REMARK  status: ('A' for Active; 'I' for Inactive)
REMARK    1  A    between atoms: C_7  and  N_8 
REMARK    2  A    between atoms: C_14  and  C_15 
REMARK    3  A    between atoms: C_17  and  C_18 
REMARK       I    between atoms: C_18  and  N_20 
REMARK    4  A    between atoms: N_20  and  C_22 
REMARK    5  A    between atoms: C_22  and  C_23 
REMARK    6  A    between atoms: C_28  and  C_29 
REMARK    7  A    between atoms: C_35  and  O_36 
REMARK    8  A    between atoms: C_38  and  O_39 
ROOT
HETATM    1  C   UNL     1       0.196  -1.232  -0.803  0.00  0.00     0.046 C 
HETATM    2  C   UNL     1      -1.158  -1.623  -0.740  0.00  0.00     0.038 C 
HETATM    3  C   UNL     1      -2.224  -0.741  -0.952  0.00  0.00     0.066 C 
HETATM    4  C   UNL     1      -1.917   0.598  -1.202  0.00  0.00     0.084 C 
HETATM    5  C   UNL     1      -0.590   1.013  -1.316  0.00  0.00     0.075 C 
HETATM    6  C   UNL     1       0.452   0.084  -1.187  0.00  0.00     0.082 C 
ENDROOT
BRANCH   3   7
HETATM    7  C   UNL     1      -3.627  -1.239  -1.115  0.00  0.00     0.256 C 
HETATM    8  O   UNL     1      -4.350  -0.586  -1.871  0.00  0.00    -0.267 OA
HETATM    9  N   UNL     1      -4.069  -2.409  -0.487  0.00  0.00    -0.348 N 
HETATM   10  C   UNL     1      -5.297  -3.026  -0.974  0.00  0.00     0.153 C 
BRANCH   9  11
HETATM   11  C   UNL     1      -3.604  -2.820   0.840  0.00  0.00     0.165 C 
BRANCH  11  12
HETATM   12  C   UNL     1      -2.795  -4.108   0.933  0.00  0.00    -0.029 A 
HETATM   13  C   UNL     1      -2.672  -4.942  -0.204  0.00  0.00     0.010 A 
HETATM   14  C   UNL     1      -2.065  -6.193  -0.138  0.00  0.00     0.001 A 
HETATM   15  C   UNL     1      -1.550  -6.636   1.066  0.00  0.00     0.001 A 
HETATM   16  C   UNL     1      -1.592  -5.802   2.186  0.00  0.00     0.013 A 
HETATM   17  C   UNL     1      -2.199  -4.523   2.160  0.00  0.00    -0.017 A 
BRANCH  17  18
HETATM   18  C   UNL     1      -2.227  -3.721   3.417  0.00  0.00    -0.008 A 
HETATM   19  C   UNL     1      -2.491  -4.316   4.661  0.00  0.00     0.015 A 
HETATM   20  C   UNL     1      -2.606  -3.546   5.819  0.00  0.00     0.020 A 
HETATM   21  C   UNL     1      -2.472  -2.175   5.713  0.00  0.00     0.116 A 
HETATM   22  N   UNL     1      -2.144  -1.556   4.565  0.00  0.00    -0.272 NA
HETATM   23  C   UNL     1      -1.990  -2.345   3.472  0.00  0.00     0.128 A 
ENDBRANCH  17  18
ENDBRANCH  11  12
ENDBRANCH   9  11
ENDBRANCH   3   7
BRANCH   4  24
HETATM   24  O   UNL     1      -2.872   1.556  -1.420  0.00  0.00    -0.360 OA
HETATM   25  H   UNL     1      -3.720   1.094  -1.607  0.00  0.00     0.217 HD
ENDBRANCH   4  24
BRANCH   1  26
HETATM   26  C   UNL     1       1.179  -2.333  -0.541  0.00  0.00     0.172 A 
HETATM   27  N   UNL     1       2.505  -2.233  -0.185  0.00  0.00    -0.244 N 
HETATM   28  C   UNL     1       2.985  -3.529  -0.150  0.00  0.00     0.349 A 
HETATM   29  O   UNL     1       4.115  -3.941   0.067  0.00  0.00    -0.245 OA
HETATM   30  N   UNL     1       1.883  -4.333  -0.401  0.00  0.00    -0.226 N 
HETATM   31  H   UNL     1       1.874  -5.342  -0.437  0.00  0.00     0.194 HD
HETATM   32  N   UNL     1       0.784  -3.580  -0.655  0.00  0.00    -0.151 NA
BRANCH  27  33
HETATM   33  C   UNL     1       3.326  -1.113   0.009  0.00  0.00     0.051 C 
HETATM   34  C   UNL     1       3.054  -0.130   0.977  0.00  0.00    -0.035 C 
HETATM   35  C   UNL     1       2.118  -0.383   2.126  0.00  0.00     0.050 C 
HETATM   36  C   UNL     1       3.769   1.078   0.924  0.00  0.00     0.009 C 
HETATM   37  C   UNL     1       4.779   1.270  -0.020  0.00  0.00     0.001 C 
HETATM   38  C   UNL     1       5.144   0.239  -0.877  0.00  0.00     0.002 C 
HETATM   39  C   UNL     1       4.418  -0.952  -0.863  0.00  0.00     0.031 C 
ENDBRANCH  27  33
ENDBRANCH   1  26
BRANCH   6  40
HETATM   40  O   UNL     1       1.696   0.472  -1.580  0.00  0.00    -0.360 OA
HETATM   41  H   UNL     1       1.751   1.440  -1.631  0.00  0.00     0.217 HD
ENDBRANCH   6  40
TORSDOF 8
