MODEL 1
REMARK VINA RESULT:    -6.027      0.000      0.000
REMARK INTER + INTRA:          -8.665
REMARK INTER:                  -7.639
REMARK INTRA:                  -1.026
REMARK UNBOUND:                -0.876
REMARK  5 active torsions:
REMARK  status: ('A' for Active; 'I' for Inactive)
REMARK    1  A    between atoms: N8_1  and  C24_2 
REMARK    2  A    between atoms: N8_1  and  C7_8 
REMARK    3  A    between atoms: C2_13  and  N1_14 
REMARK    4  A    between atoms: N1_14  and  C17_15 
REMARK    5  A    between atoms: C14_16  and  C13_19 
ROOT
ATOM      1  C17 FTA A   1       8.448  12.552  10.842  1.00  0.00     0.142 C 
ATOM      2  C14 FTA A   1       8.250  11.408  10.158  1.00  0.00     0.158 C 
ATOM      3  C18 FTA A   1       9.378  10.665   9.641  1.00  0.00     0.069 C 
ATOM      4  N21 FTA A   1      10.376  10.202   9.234  1.00  0.00    -0.197 NA
ENDROOT
BRANCH   2   5
ATOM      5  C13 FTA A   1       6.869  10.912   9.954  1.00  0.00     0.197 A 
ATOM      6  N15 FTA A   1       6.503   9.762   9.258  1.00  0.00    -0.093 NA
ATOM      7  N19 FTA A   1       5.116   9.692   9.267  1.00  0.00    -0.231 N 
ATOM      8  N20 FTA A   1       4.610  10.784   9.956  1.00  0.00    -0.017 NA
ATOM      9  H15 FTA A   1       4.553   8.948   8.831  1.00  0.00     0.200 HD
ATOM     10  N16 FTA A   1       5.696  11.536  10.392  1.00  0.00    -0.090 NA
ENDBRANCH   2   5
BRANCH   1  11
ATOM     11  N1  FTA A   1       7.795  13.665  10.455  1.00  0.00    -0.389 N 
ATOM     12  H11 FTA A   1       7.577  13.764   9.453  1.00  0.00     0.159 HD
BRANCH  11  13
ATOM     13  C2  FTA A   1       7.384  14.713  11.323  1.00  0.00     0.028 A 
ATOM     14  C4  FTA A   1       7.985  15.969  11.305  1.00  0.00     0.031 A 
ATOM     15  C6  FTA A   1       7.694  16.876  12.333  1.00  0.00     0.031 A 
ATOM     16  C7  FTA A   1       6.825  16.561  13.375  1.00  0.00     0.032 A 
ATOM     17  C5  FTA A   1       6.218  15.318  13.365  1.00  0.00     0.031 A 
ATOM     18  C3  FTA A   1       6.502  14.400  12.362  1.00  0.00     0.031 A 
BRANCH  16  19
ATOM     19  N8  FTA A   1       6.679  17.374  14.528  1.00  0.00    -0.356 N 
ATOM     20  H1  FTA A   1       5.988  18.137  14.483  1.00  0.00     0.166 HD
BRANCH  19  21
ATOM     21  C24 FTA A   1       7.411  17.223  15.744  1.00  0.00     0.032 A 
ATOM     22  C26 FTA A   1       6.777  17.168  16.963  1.00  0.00     0.029 A 
ATOM     23  C28 FTA A   1       7.547  17.195  18.111  1.00  0.00     0.002 A 
ATOM     24  C30 FTA A   1       8.930  17.244  18.077  1.00  0.00     0.000 A 
ATOM     25  C29 FTA A   1       9.574  17.261  16.869  1.00  0.00     0.002 A 
ATOM     26  C27 FTA A   1       8.797  17.237  15.705  1.00  0.00     0.029 A 
ENDBRANCH  19  21
ENDBRANCH  16  19
ENDBRANCH  11  13
ENDBRANCH   1  11
TORSDOF 5
ENDMDL
MODEL 2
REMARK VINA RESULT:    -5.805      2.462      8.026
REMARK INTER + INTRA:          -8.378
REMARK INTER:                  -7.419
REMARK INTRA:                  -0.958
REMARK UNBOUND:                -0.876
REMARK  5 active torsions:
REMARK  status: ('A' for Active; 'I' for Inactive)
REMARK    1  A    between atoms: N8_1  and  C24_2 
REMARK    2  A    between atoms: N8_1  and  C7_8 
REMARK    3  A    between atoms: C2_13  and  N1_14 
REMARK    4  A    between atoms: N1_14  and  C17_15 
REMARK    5  A    between atoms: C14_16  and  C13_19 
ROOT
ATOM      1  C17 FTA A   1       5.620  17.776  14.896  1.00  0.00     0.142 C 
ATOM      2  C14 FTA A   1       6.261  17.400  16.020  1.00  0.00     0.158 C 
ATOM      3  C18 FTA A   1       7.702  17.268  16.026  1.00  0.00     0.069 C 
ATOM      4  N21 FTA A   1       8.858  17.148  15.868  1.00  0.00    -0.197 NA
ENDROOT
BRANCH   2   5
ATOM      5  C13 FTA A   1       5.480  17.138  17.251  1.00  0.00     0.197 A 
ATOM      6  N15 FTA A   1       6.000  16.795  18.497  1.00  0.00    -0.093 NA
ATOM      7  N19 FTA A   1       4.928  16.594  19.356  1.00  0.00    -0.231 N 
ATOM      8  N20 FTA A   1       3.744  16.804  18.664  1.00  0.00    -0.017 NA
ATOM      9  H15 FTA A   1       4.999  16.331  20.350  1.00  0.00     0.200 HD
ATOM     10  N16 FTA A   1       4.085  17.152  17.361  1.00  0.00    -0.090 NA
ENDBRANCH   2   5
BRANCH   1  11
ATOM     11  N1  FTA A   1       4.606  17.016  14.439  1.00  0.00    -0.389 N 
ATOM     12  H11 FTA A   1       3.714  17.054  14.953  1.00  0.00     0.159 HD
BRANCH  11  13
ATOM     13  C2  FTA A   1       4.672  16.167  13.300  1.00  0.00     0.028 A 
ATOM     14  C4  FTA A   1       3.751  15.146  13.083  1.00  0.00     0.031 A 
ATOM     15  C6  FTA A   1       4.004  14.205  12.075  1.00  0.00     0.031 A 
ATOM     16  C7  FTA A   1       5.148  14.258  11.284  1.00  0.00     0.032 A 
ATOM     17  C5  FTA A   1       6.041  15.294  11.495  1.00  0.00     0.031 A 
ATOM     18  C3  FTA A   1       5.815  16.228  12.499  1.00  0.00     0.031 A 
BRANCH  16  19
ATOM     19  N8  FTA A   1       5.527  13.210  10.407  1.00  0.00    -0.356 N 
ATOM     20  H1  FTA A   1       5.095  13.197   9.472  1.00  0.00     0.166 HD
BRANCH  19  21
ATOM     21  C24 FTA A   1       6.457  12.171  10.714  1.00  0.00     0.032 A 
ATOM     22  C26 FTA A   1       7.218  12.200  11.859  1.00  0.00     0.029 A 
ATOM     23  C28 FTA A   1       8.219  11.260  12.013  1.00  0.00     0.002 A 
ATOM     24  C30 FTA A   1       8.462  10.273  11.073  1.00  0.00     0.000 A 
ATOM     25  C29 FTA A   1       7.686  10.210   9.947  1.00  0.00     0.002 A 
ATOM     26  C27 FTA A   1       6.674  11.163   9.786  1.00  0.00     0.029 A 
ENDBRANCH  19  21
ENDBRANCH  16  19
ENDBRANCH  11  13
ENDBRANCH   1  11
TORSDOF 5
ENDMDL
MODEL 3
REMARK VINA RESULT:    -5.782      6.017     10.390
REMARK INTER + INTRA:          -8.347
REMARK INTER:                  -7.305
REMARK INTRA:                  -1.042
REMARK UNBOUND:                -0.876
REMARK  5 active torsions:
REMARK  status: ('A' for Active; 'I' for Inactive)
REMARK    1  A    between atoms: N8_1  and  C24_2 
REMARK    2  A    between atoms: N8_1  and  C7_8 
REMARK    3  A    between atoms: C2_13  and  N1_14 
REMARK    4  A    between atoms: N1_14  and  C17_15 
REMARK    5  A    between atoms: C14_16  and  C13_19 
ROOT
ATOM      1  C17 FTA A   1       8.935  17.745  18.220  1.00  0.00     0.142 C 
ATOM      2  C14 FTA A   1       7.774  17.388  17.636  1.00  0.00     0.158 C 
ATOM      3  C18 FTA A   1       7.739  17.054  16.229  1.00  0.00     0.069 C 
ATOM      4  N21 FTA A   1       7.850  16.868  15.077  1.00  0.00    -0.197 NA
ENDROOT
BRANCH   2   5
ATOM      5  C13 FTA A   1       6.539  17.327  18.451  1.00  0.00     0.197 A 
ATOM      6  N15 FTA A   1       6.413  17.712  19.784  1.00  0.00    -0.093 NA
ATOM      7  N19 FTA A   1       5.106  17.449  20.173  1.00  0.00    -0.231 N 
ATOM      8  N20 FTA A   1       4.414  16.902  19.103  1.00  0.00    -0.017 NA
ATOM      9  H15 FTA A   1       4.713  17.630  21.108  1.00  0.00     0.200 HD
ATOM     10  N16 FTA A   1       5.297  16.835  18.031  1.00  0.00    -0.090 NA
ENDBRANCH   2   5
BRANCH   1  11
ATOM     11  N1  FTA A   1       8.989  18.898  18.914  1.00  0.00    -0.389 N 
ATOM     12  H11 FTA A   1       8.512  19.718  18.512  1.00  0.00     0.159 HD
BRANCH  11  13
ATOM     13  C2  FTA A   1       9.654  19.070  20.158  1.00  0.00     0.028 A 
ATOM     14  C4  FTA A   1       9.605  18.108  21.164  1.00  0.00     0.031 A 
ATOM     15  C6  FTA A   1      10.082  18.434  22.441  1.00  0.00     0.031 A 
ATOM     16  C7  FTA A   1      10.603  19.691  22.737  1.00  0.00     0.032 A 
ATOM     17  C5  FTA A   1      10.668  20.627  21.721  1.00  0.00     0.031 A 
ATOM     18  C3  FTA A   1      10.188  20.328  20.452  1.00  0.00     0.031 A 
BRANCH  16  19
ATOM     19  N8  FTA A   1      10.895  20.110  24.060  1.00  0.00    -0.356 N 
ATOM     20  H1  FTA A   1      11.875  20.344  24.276  1.00  0.00     0.166 HD
BRANCH  19  21
ATOM     21  C24 FTA A   1       9.944  20.235  25.118  1.00  0.00     0.032 A 
ATOM     22  C26 FTA A   1      10.241  19.851  26.404  1.00  0.00     0.029 A 
ATOM     23  C28 FTA A   1       9.226  19.834  27.341  1.00  0.00     0.002 A 
ATOM     24  C30 FTA A   1       7.931  20.220  27.041  1.00  0.00     0.000 A 
ATOM     25  C29 FTA A   1       7.630  20.641  25.773  1.00  0.00     0.002 A 
ATOM     26  C27 FTA A   1       8.655  20.655  24.820  1.00  0.00     0.029 A 
ENDBRANCH  19  21
ENDBRANCH  16  19
ENDBRANCH  11  13
ENDBRANCH   1  11
TORSDOF 5
ENDMDL
MODEL 4
REMARK VINA RESULT:    -5.727      4.308      9.720
REMARK INTER + INTRA:          -8.277
REMARK INTER:                  -7.262
REMARK INTRA:                  -1.015
REMARK UNBOUND:                -0.876
REMARK  5 active torsions:
REMARK  status: ('A' for Active; 'I' for Inactive)
REMARK    1  A    between atoms: N8_1  and  C24_2 
REMARK    2  A    between atoms: N8_1  and  C7_8 
REMARK    3  A    between atoms: C2_13  and  N1_14 
REMARK    4  A    between atoms: N1_14  and  C17_15 
REMARK    5  A    between atoms: C14_16  and  C13_19 
ROOT
ATOM      1  C17 FTA A   1       9.563  18.250  19.356  1.00  0.00     0.142 C 
ATOM      2  C14 FTA A   1       9.089  18.551  20.582  1.00  0.00     0.158 C 
ATOM      3  C18 FTA A   1       9.999  18.698  21.697  1.00  0.00     0.069 C 
ATOM      4  N21 FTA A   1      10.842  18.729  22.512  1.00  0.00    -0.197 NA
ENDROOT
BRANCH   2   5
ATOM      5  C13 FTA A   1       7.634  18.745  20.773  1.00  0.00     0.197 A 
ATOM      6  N15 FTA A   1       6.899  18.397  21.904  1.00  0.00    -0.093 NA
ATOM      7  N19 FTA A   1       5.569  18.706  21.650  1.00  0.00    -0.231 N 
ATOM      8  N20 FTA A   1       5.462  19.241  20.375  1.00  0.00    -0.017 NA
ATOM      9  H15 FTA A   1       4.787  18.562  22.305  1.00  0.00     0.200 HD
ATOM     10  N16 FTA A   1       6.742  19.276  19.833  1.00  0.00    -0.090 NA
ENDBRANCH   2   5
BRANCH   1  11
ATOM     11  N1  FTA A   1       9.042  17.197  18.697  1.00  0.00    -0.389 N 
ATOM     12  H11 FTA A   1       9.133  16.269  19.135  1.00  0.00     0.159 HD
BRANCH  11  13
ATOM     13  C2  FTA A   1       8.374  17.269  17.444  1.00  0.00     0.028 A 
ATOM     14  C4  FTA A   1       7.040  16.899  17.292  1.00  0.00     0.031 A 
ATOM     15  C6  FTA A   1       6.513  16.773  16.000  1.00  0.00     0.031 A 
ATOM     16  C7  FTA A   1       7.280  17.004  14.861  1.00  0.00     0.032 A 
ATOM     17  C5  FTA A   1       8.596  17.396  15.029  1.00  0.00     0.031 A 
ATOM     18  C3  FTA A   1       9.142  17.513  16.302  1.00  0.00     0.031 A 
BRANCH  16  19
ATOM     19  N8  FTA A   1       6.833  16.683  13.554  1.00  0.00    -0.356 N 
ATOM     20  H1  FTA A   1       7.231  17.224  12.773  1.00  0.00     0.166 HD
BRANCH  19  21
ATOM     21  C24 FTA A   1       5.878  15.672  13.232  1.00  0.00     0.032 A 
ATOM     22  C26 FTA A   1       6.248  14.359  13.061  1.00  0.00     0.029 A 
ATOM     23  C28 FTA A   1       5.311  13.464  12.583  1.00  0.00     0.002 A 
ATOM     24  C30 FTA A   1       4.007  13.833  12.299  1.00  0.00     0.000 A 
ATOM     25  C29 FTA A   1       3.616  15.130  12.502  1.00  0.00     0.002 A 
ATOM     26  C27 FTA A   1       4.564  16.040  12.983  1.00  0.00     0.029 A 
ENDBRANCH  19  21
ENDBRANCH  16  19
ENDBRANCH  11  13
ENDBRANCH   1  11
TORSDOF 5
ENDMDL
MODEL 5
REMARK VINA RESULT:    -5.673      2.404      8.655
REMARK INTER + INTRA:          -8.207
REMARK INTER:                  -7.166
REMARK INTRA:                  -1.041
REMARK UNBOUND:                -0.876
REMARK  5 active torsions:
REMARK  status: ('A' for Active; 'I' for Inactive)
REMARK    1  A    between atoms: N8_1  and  C24_2 
REMARK    2  A    between atoms: N8_1  and  C7_8 
REMARK    3  A    between atoms: C2_13  and  N1_14 
REMARK    4  A    between atoms: N1_14  and  C17_15 
REMARK    5  A    between atoms: C14_16  and  C13_19 
ROOT
ATOM      1  C17 FTA A   1       6.312  16.477  16.367  1.00  0.00     0.142 C 
ATOM      2  C14 FTA A   1       6.684  16.988  17.557  1.00  0.00     0.158 C 
ATOM      3  C18 FTA A   1       5.690  17.263  18.573  1.00  0.00     0.069 C 
ATOM      4  N21 FTA A   1       4.777  17.489  19.273  1.00  0.00    -0.197 NA
ENDROOT
BRANCH   2   5
ATOM      5  C13 FTA A   1       8.117  17.248  17.823  1.00  0.00     0.197 A 
ATOM      6  N15 FTA A   1       9.192  16.772  17.075  1.00  0.00    -0.093 NA
ATOM      7  N19 FTA A   1      10.356  17.210  17.691  1.00  0.00    -0.231 N 
ATOM      8  N20 FTA A   1      10.025  17.952  18.815  1.00  0.00    -0.017 NA
ATOM      9  H15 FTA A   1      11.314  17.015  17.365  1.00  0.00     0.200 HD
ATOM     10  N16 FTA A   1       8.637  17.986  18.893  1.00  0.00    -0.090 NA
ENDBRANCH   2   5
BRANCH   1  11
ATOM     11  N1  FTA A   1       6.706  17.100  15.239  1.00  0.00    -0.389 N 
ATOM     12  H11 FTA A   1       6.957  18.097  15.309  1.00  0.00     0.159 HD
BRANCH  11  13
ATOM     13  C2  FTA A   1       6.803  16.487  13.960  1.00  0.00     0.028 A 
ATOM     14  C4  FTA A   1       6.070  15.351  13.625  1.00  0.00     0.031 A 
ATOM     15  C6  FTA A   1       6.381  14.666  12.443  1.00  0.00     0.031 A 
ATOM     16  C7  FTA A   1       7.401  15.083  11.592  1.00  0.00     0.032 A 
ATOM     17  C5  FTA A   1       8.103  16.228  11.926  1.00  0.00     0.031 A 
ATOM     18  C3  FTA A   1       7.820  16.913  13.101  1.00  0.00     0.031 A 
BRANCH  16  19
ATOM     19  N8  FTA A   1       7.869  14.297  10.509  1.00  0.00    -0.356 N 
ATOM     20  H1  FTA A   1       8.279  14.795   9.705  1.00  0.00     0.166 HD
BRANCH  19  21
ATOM     21  C24 FTA A   1       7.820  12.871  10.440  1.00  0.00     0.032 A 
ATOM     22  C26 FTA A   1       8.728  12.086  11.109  1.00  0.00     0.029 A 
ATOM     23  C28 FTA A   1       8.733  10.725  10.865  1.00  0.00     0.002 A 
ATOM     24  C30 FTA A   1       7.839  10.123   9.996  1.00  0.00     0.000 A 
ATOM     25  C29 FTA A   1       6.905  10.890   9.352  1.00  0.00     0.002 A 
ATOM     26  C27 FTA A   1       6.899  12.268   9.595  1.00  0.00     0.029 A 
ENDBRANCH  19  21
ENDBRANCH  16  19
ENDBRANCH  11  13
ENDBRANCH   1  11
TORSDOF 5
ENDMDL
MODEL 6
REMARK VINA RESULT:    -5.669      3.129      8.770
REMARK INTER + INTRA:          -8.201
REMARK INTER:                  -7.180
REMARK INTRA:                  -1.022
REMARK UNBOUND:                -0.876
REMARK  5 active torsions:
REMARK  status: ('A' for Active; 'I' for Inactive)
REMARK    1  A    between atoms: N8_1  and  C24_2 
REMARK    2  A    between atoms: N8_1  and  C7_8 
REMARK    3  A    between atoms: C2_13  and  N1_14 
REMARK    4  A    between atoms: N1_14  and  C17_15 
REMARK    5  A    between atoms: C14_16  and  C13_19 
ROOT
ATOM      1  C17 FTA A   1       3.151  17.736  15.176  1.00  0.00     0.142 C 
ATOM      2  C14 FTA A   1       3.186  18.247  16.423  1.00  0.00     0.158 C 
ATOM      3  C18 FTA A   1       2.379  19.401  16.758  1.00  0.00     0.069 C 
ATOM      4  N21 FTA A   1       1.722  20.366  16.870  1.00  0.00    -0.197 NA
ENDROOT
BRANCH   2   5
ATOM      5  C13 FTA A   1       4.043  17.609  17.448  1.00  0.00     0.197 A 
ATOM      6  N15 FTA A   1       5.412  17.371  17.343  1.00  0.00    -0.093 NA
ATOM      7  N19 FTA A   1       5.812  16.717  18.500  1.00  0.00    -0.231 N 
ATOM      8  N20 FTA A   1       4.712  16.539  19.327  1.00  0.00    -0.017 NA
ATOM      9  H15 FTA A   1       6.773  16.411  18.712  1.00  0.00     0.200 HD
ATOM     10  N16 FTA A   1       3.616  17.102  18.681  1.00  0.00    -0.090 NA
ENDBRANCH   2   5
BRANCH   1  11
ATOM     11  N1  FTA A   1       4.310  17.556  14.513  1.00  0.00    -0.389 N 
ATOM     12  H11 FTA A   1       5.038  18.277  14.624  1.00  0.00     0.159 HD
BRANCH  11  13
ATOM     13  C2  FTA A   1       4.605  16.448  13.673  1.00  0.00     0.028 A 
ATOM     14  C4  FTA A   1       3.606  15.691  13.067  1.00  0.00     0.031 A 
ATOM     15  C6  FTA A   1       3.950  14.484  12.444  1.00  0.00     0.031 A 
ATOM     16  C7  FTA A   1       5.261  14.015  12.414  1.00  0.00     0.032 A 
ATOM     17  C5  FTA A   1       6.246  14.791  12.999  1.00  0.00     0.031 A 
ATOM     18  C3  FTA A   1       5.923  15.984  13.633  1.00  0.00     0.031 A 
BRANCH  16  19
ATOM     19  N8  FTA A   1       5.601  12.708  11.979  1.00  0.00    -0.356 N 
ATOM     20  H1  FTA A   1       4.919  11.958  12.160  1.00  0.00     0.166 HD
BRANCH  19  21
ATOM     21  C24 FTA A   1       6.811  12.347  11.313  1.00  0.00     0.032 A 
ATOM     22  C26 FTA A   1       7.004  12.612   9.977  1.00  0.00     0.029 A 
ATOM     23  C28 FTA A   1       8.119  12.086   9.352  1.00  0.00     0.002 A 
ATOM     24  C30 FTA A   1       9.062  11.330  10.028  1.00  0.00     0.000 A 
ATOM     25  C29 FTA A   1       8.900  11.092  11.367  1.00  0.00     0.002 A 
ATOM     26  C27 FTA A   1       7.770  11.620  12.002  1.00  0.00     0.029 A 
ENDBRANCH  19  21
ENDBRANCH  16  19
ENDBRANCH  11  13
ENDBRANCH   1  11
TORSDOF 5
ENDMDL
MODEL 7
REMARK VINA RESULT:    -5.597      7.836     10.256
REMARK INTER + INTRA:          -8.109
REMARK INTER:                  -7.233
REMARK INTRA:                  -0.876
REMARK UNBOUND:                -0.876
REMARK  5 active torsions:
REMARK  status: ('A' for Active; 'I' for Inactive)
REMARK    1  A    between atoms: N8_1  and  C24_2 
REMARK    2  A    between atoms: N8_1  and  C7_8 
REMARK    3  A    between atoms: C2_13  and  N1_14 
REMARK    4  A    between atoms: N1_14  and  C17_15 
REMARK    5  A    between atoms: C14_16  and  C13_19 
ROOT
ATOM      1  C17 FTA A   1       2.501  15.810  13.670  1.00  0.00     0.142 C 
ATOM      2  C14 FTA A   1       3.581  15.906  12.870  1.00  0.00     0.158 C 
ATOM      3  C18 FTA A   1       3.826  17.120  12.121  1.00  0.00     0.069 C 
ATOM      4  N21 FTA A   1       3.866  18.135  11.535  1.00  0.00    -0.197 NA
ENDROOT
BRANCH   2   5
ATOM      5  C13 FTA A   1       4.521  14.765  12.775  1.00  0.00     0.197 A 
ATOM      6  N15 FTA A   1       5.875  14.787  13.102  1.00  0.00    -0.093 NA
ATOM      7  N19 FTA A   1       6.392  13.528  12.824  1.00  0.00    -0.231 N 
ATOM      8  N20 FTA A   1       5.381  12.721  12.325  1.00  0.00    -0.017 NA
ATOM      9  H15 FTA A   1       7.371  13.239  12.966  1.00  0.00     0.200 HD
ATOM     10  N16 FTA A   1       4.217  13.483  12.304  1.00  0.00    -0.090 NA
ENDBRANCH   2   5
BRANCH   1  11
ATOM     11  N1  FTA A   1       1.670  14.761  13.519  1.00  0.00    -0.389 N 
ATOM     12  H11 FTA A   1       2.094  13.826  13.433  1.00  0.00     0.159 HD
BRANCH  11  13
ATOM     13  C2  FTA A   1       0.251  14.846  13.471  1.00  0.00     0.028 A 
ATOM     14  C4  FTA A   1      -0.560  14.256  14.437  1.00  0.00     0.031 A 
ATOM     15  C6  FTA A   1      -1.940  14.177  14.210  1.00  0.00     0.031 A 
ATOM     16  C7  FTA A   1      -2.528  14.669  13.047  1.00  0.00     0.032 A 
ATOM     17  C5  FTA A   1      -1.712  15.274  12.109  1.00  0.00     0.031 A 
ATOM     18  C3  FTA A   1      -0.339  15.350  12.309  1.00  0.00     0.031 A 
BRANCH  16  19
ATOM     19  N8  FTA A   1      -3.881  14.416  12.702  1.00  0.00    -0.356 N 
ATOM     20  H1  FTA A   1      -4.472  15.230  12.483  1.00  0.00     0.166 HD
BRANCH  19  21
ATOM     21  C24 FTA A   1      -4.489  13.126  12.635  1.00  0.00     0.032 A 
ATOM     22  C26 FTA A   1      -4.628  12.456  11.443  1.00  0.00     0.029 A 
ATOM     23  C28 FTA A   1      -5.377  11.295  11.418  1.00  0.00     0.002 A 
ATOM     24  C30 FTA A   1      -5.965  10.767  12.555  1.00  0.00     0.000 A 
ATOM     25  C29 FTA A   1      -5.803  11.404  13.756  1.00  0.00     0.002 A 
ATOM     26  C27 FTA A   1      -5.048  12.582  13.783  1.00  0.00     0.029 A 
ENDBRANCH  19  21
ENDBRANCH  16  19
ENDBRANCH  11  13
ENDBRANCH   1  11
TORSDOF 5
ENDMDL
MODEL 8
REMARK VINA RESULT:    -5.520      6.950     11.162
REMARK INTER + INTRA:          -8.009
REMARK INTER:                  -7.055
REMARK INTRA:                  -0.953
REMARK UNBOUND:                -0.876
REMARK  5 active torsions:
REMARK  status: ('A' for Active; 'I' for Inactive)
REMARK    1  A    between atoms: N8_1  and  C24_2 
REMARK    2  A    between atoms: N8_1  and  C7_8 
REMARK    3  A    between atoms: C2_13  and  N1_14 
REMARK    4  A    between atoms: N1_14  and  C17_15 
REMARK    5  A    between atoms: C14_16  and  C13_19 
ROOT
ATOM      1  C17 FTA A   1       7.131  18.534  19.766  1.00  0.00     0.142 C 
ATOM      2  C14 FTA A   1       6.776  17.668  18.797  1.00  0.00     0.158 C 
ATOM      3  C18 FTA A   1       5.487  17.012  18.843  1.00  0.00     0.069 C 
ATOM      4  N21 FTA A   1       4.444  16.515  19.041  1.00  0.00    -0.197 NA
ENDROOT
BRANCH   2   5
ATOM      5  C13 FTA A   1       7.710  17.405  17.677  1.00  0.00     0.197 A 
ATOM      6  N15 FTA A   1       8.994  16.875  17.784  1.00  0.00    -0.093 NA
ATOM      7  N19 FTA A   1       9.538  16.837  16.507  1.00  0.00    -0.231 N 
ATOM      8  N20 FTA A   1       8.613  17.339  15.603  1.00  0.00    -0.017 NA
ATOM      9  H15 FTA A   1      10.479  16.492  16.269  1.00  0.00     0.200 HD
ATOM     10  N16 FTA A   1       7.474  17.681  16.325  1.00  0.00    -0.090 NA
ENDBRANCH   2   5
BRANCH   1  11
ATOM     11  N1  FTA A   1       8.304  18.354  20.403  1.00  0.00    -0.389 N 
ATOM     12  H11 FTA A   1       8.958  17.661  20.010  1.00  0.00     0.159 HD
BRANCH  11  13
ATOM     13  C2  FTA A   1       8.709  19.047  21.577  1.00  0.00     0.028 A 
ATOM     14  C4  FTA A   1       9.564  18.477  22.516  1.00  0.00     0.031 A 
ATOM     15  C6  FTA A   1       9.739  19.114  23.752  1.00  0.00     0.031 A 
ATOM     16  C7  FTA A   1       9.083  20.299  24.073  1.00  0.00     0.032 A 
ATOM     17  C5  FTA A   1       8.256  20.866  23.119  1.00  0.00     0.031 A 
ATOM     18  C3  FTA A   1       8.059  20.243  21.893  1.00  0.00     0.031 A 
BRANCH  16  19
ATOM     19  N8  FTA A   1       9.079  20.848  25.381  1.00  0.00    -0.356 N 
ATOM     20  H1  FTA A   1       9.544  21.757  25.513  1.00  0.00     0.166 HD
BRANCH  19  21
ATOM     21  C24 FTA A   1       8.483  20.243  26.529  1.00  0.00     0.032 A 
ATOM     22  C26 FTA A   1       7.142  20.377  26.799  1.00  0.00     0.029 A 
ATOM     23  C28 FTA A   1       6.661  19.917  28.010  1.00  0.00     0.002 A 
ATOM     24  C30 FTA A   1       7.474  19.299  28.946  1.00  0.00     0.000 A 
ATOM     25  C29 FTA A   1       8.804  19.125  28.672  1.00  0.00     0.002 A 
ATOM     26  C27 FTA A   1       9.294  19.593  27.448  1.00  0.00     0.029 A 
ENDBRANCH  19  21
ENDBRANCH  16  19
ENDBRANCH  11  13
ENDBRANCH   1  11
TORSDOF 5
ENDMDL
