MODEL 1
REMARK VINA RESULT:    -9.890      0.000      0.000
REMARK INTER + INTRA:         -14.357
REMARK INTER:                 -12.813
REMARK INTRA:                  -1.543
REMARK UNBOUND:                -1.287
REMARK  6 active torsions:
REMARK  status: ('A' for Active; 'I' for Inactive)
REMARK    1  A    between atoms: N_8  and  C_9 
REMARK    2  A    between atoms: C_14  and  N_15 
REMARK       I    between atoms: N_15  and  C_17 
REMARK    3  A    between atoms: C_17  and  C_19 
REMARK    4  A    between atoms: C_21  and  O_22 
REMARK    5  A    between atoms: C_29  and  C_30 
REMARK    6  A    between atoms: C_30  and  C_31 
ROOT
HETATM    1  C   UNL     1      -2.848  13.389  21.558  0.00  0.00     0.066 C 
HETATM    2  C   UNL     1      -2.121  14.288  20.746  0.00  0.00     0.035 C 
HETATM    3  C   UNL     1      -4.200  13.702  21.829  0.00  0.00     0.083 C 
HETATM    4  C   UNL     1      -4.789  14.901  21.408  0.00  0.00     0.069 C 
HETATM    5  C   UNL     1      -3.959  15.832  20.774  0.00  0.00     0.065 A 
HETATM    6  C   UNL     1      -2.634  15.578  20.459  0.00  0.00     0.020 A 
HETATM    7  N   UNL     1      -4.198  17.095  20.308  0.00  0.00    -0.277 N 
HETATM    8  H   UNL     1      -5.082  17.592  20.311  0.00  0.00     0.189 HD
HETATM    9  N   UNL     1      -3.107  17.724  19.844  0.00  0.00    -0.178 NA
HETATM   10  C   UNL     1      -2.123  16.818  19.938  0.00  0.00     0.071 A 
ENDROOT
BRANCH   1  11
HETATM   11  C   UNL     1      -2.238  12.142  22.183  0.00  0.00     0.260 C 
HETATM   12  N   UNL     1      -1.295  12.226  23.255  0.00  0.00    -0.318 N 
HETATM   13  C   UNL     1      -0.934  13.521  23.842  0.00  0.00     0.159 C 
HETATM   14  O   UNL     1      -2.677  11.087  21.729  0.00  0.00    -0.267 OA
BRANCH  12  15
HETATM   15  C   UNL     1      -0.729  11.054  23.925  0.00  0.00     0.037 C 
HETATM   16  C   UNL     1      -1.277  10.597  25.132  0.00  0.00     0.032 C 
HETATM   17  C   UNL     1      -0.925   9.367  25.710  0.00  0.00     0.031 C 
HETATM   18  C   UNL     1       0.031   8.521  25.146  0.00  0.00     0.030 C 
HETATM   19  C   UNL     1       0.705   9.050  24.039  0.00  0.00     0.031 C 
HETATM   20  C   UNL     1       0.330  10.284  23.436  0.00  0.00     0.032 C 
BRANCH  18  21
HETATM   21  N   UNL     1       0.288   7.278  25.718  0.00  0.00    -0.378 N 
HETATM   22  C   UNL     1       1.479   7.036  26.548  0.00  0.00     0.150 C 
HETATM   23  C   UNL     1       2.627   6.413  25.724  0.00  0.00     0.254 C 
HETATM   24  N   UNL     1       2.150   5.159  24.981  0.00  0.00    -0.072 N 
HETATM   25  H   UNL     1       1.865   4.477  25.695  0.00  0.00     0.279 HD
HETATM   26  C   UNL     1       3.244   4.537  24.167  0.00  0.00     0.269 C 
HETATM   27  C   UNL     1       0.912   5.461  24.134  0.00  0.00     0.254 C 
HETATM   28  C   UNL     1      -0.202   6.072  25.009  0.00  0.00     0.150 C 
ENDBRANCH  18  21
ENDBRANCH  12  15
ENDBRANCH   1  11
BRANCH   3  29
HETATM   29  O   UNL     1      -5.037  12.864  22.528  0.00  0.00    -0.360 OA
HETATM   30  H   UNL     1      -4.489  12.361  23.169  0.00  0.00     0.217 HD
ENDBRANCH   3  29
BRANCH  10  31
HETATM   31  C   UNL     1      -0.725  17.223  19.520  0.00  0.00     0.100 C 
BRANCH  31  32
HETATM   32  C   UNL     1       0.319  16.884  20.584  0.00  0.00    -0.052 A 
HETATM   33  C   UNL     1       0.209  17.267  21.926  0.00  0.00     0.007 A 
HETATM   34  C   UNL     1       1.196  16.944  22.860  0.00  0.00     0.001 A 
HETATM   35  C   UNL     1       2.367  16.310  22.457  0.00  0.00     0.007 A 
HETATM   36  C   UNL     1       2.580  16.029  21.105  0.00  0.00    -0.061 A 
HETATM   37  C   UNL     1       1.542  16.277  20.184  0.00  0.00     0.014 A 
HETATM   38  C   UNL     1       3.920  15.484  20.682  0.00  0.00     0.048 C 
ENDBRANCH  31  32
ENDBRANCH  10  31
TORSDOF 6
ENDMDL
MODEL 2
REMARK VINA RESULT:    -9.780      1.015      1.381
REMARK INTER + INTRA:         -14.212
REMARK INTER:                 -12.847
REMARK INTRA:                  -1.365
REMARK UNBOUND:                -1.287
REMARK  6 active torsions:
REMARK  status: ('A' for Active; 'I' for Inactive)
REMARK    1  A    between atoms: N_8  and  C_9 
REMARK    2  A    between atoms: C_14  and  N_15 
REMARK       I    between atoms: N_15  and  C_17 
REMARK    3  A    between atoms: C_17  and  C_19 
REMARK    4  A    between atoms: C_21  and  O_22 
REMARK    5  A    between atoms: C_29  and  C_30 
REMARK    6  A    between atoms: C_30  and  C_31 
ROOT
HETATM    1  C   UNL     1      -2.832  13.468  21.751  0.00  0.00     0.066 C 
HETATM    2  C   UNL     1      -1.873  14.256  21.077  0.00  0.00     0.035 C 
HETATM    3  C   UNL     1      -4.175  13.911  21.723  0.00  0.00     0.083 C 
HETATM    4  C   UNL     1      -4.549  15.132  21.147  0.00  0.00     0.069 C 
HETATM    5  C   UNL     1      -3.523  15.951  20.667  0.00  0.00     0.065 A 
HETATM    6  C   UNL     1      -2.191  15.568  20.645  0.00  0.00     0.020 A 
HETATM    7  N   UNL     1      -3.540  17.204  20.118  0.00  0.00    -0.277 N 
HETATM    8  H   UNL     1      -4.355  17.774  19.919  0.00  0.00     0.189 HD
HETATM    9  N   UNL     1      -2.322  17.711  19.870  0.00  0.00    -0.178 NA
HETATM   10  C   UNL     1      -1.469  16.730  20.198  0.00  0.00     0.071 A 
ENDROOT
BRANCH   1  11
HETATM   11  C   UNL     1      -2.484  12.209  22.533  0.00  0.00     0.260 C 
HETATM   12  N   UNL     1      -1.822  12.272  23.798  0.00  0.00    -0.318 N 
HETATM   13  C   UNL     1      -1.517  13.563  24.427  0.00  0.00     0.159 C 
HETATM   14  O   UNL     1      -2.879  11.168  22.009  0.00  0.00    -0.267 OA
BRANCH  12  15
HETATM   15  C   UNL     1      -1.522  11.093  24.612  0.00  0.00     0.037 C 
HETATM   16  C   UNL     1      -0.648  10.107  24.131  0.00  0.00     0.032 C 
HETATM   17  C   UNL     1      -0.154   9.069  24.938  0.00  0.00     0.031 C 
HETATM   18  C   UNL     1      -0.529   8.917  26.273  0.00  0.00     0.030 C 
HETATM   19  C   UNL     1      -1.531   9.792  26.707  0.00  0.00     0.031 C 
HETATM   20  C   UNL     1      -2.012  10.861  25.900  0.00  0.00     0.032 C 
BRANCH  18  21
HETATM   21  N   UNL     1       0.049   7.916  27.051  0.00  0.00    -0.378 N 
HETATM   22  C   UNL     1       1.509   7.760  27.155  0.00  0.00     0.150 C 
HETATM   23  C   UNL     1       2.037   6.698  26.165  0.00  0.00     0.254 C 
HETATM   24  N   UNL     1       1.279   5.374  26.326  0.00  0.00    -0.072 N 
HETATM   25  H   UNL     1       1.461   5.038  27.280  0.00  0.00     0.279 HD
HETATM   26  C   UNL     1       1.769   4.327  25.372  0.00  0.00     0.269 C 
HETATM   27  C   UNL     1      -0.231   5.589  26.210  0.00  0.00     0.254 C 
HETATM   28  C   UNL     1      -0.702   6.651  27.226  0.00  0.00     0.150 C 
ENDBRANCH  18  21
ENDBRANCH  12  15
ENDBRANCH   1  11
BRANCH   3  29
HETATM   29  O   UNL     1      -5.213  13.187  22.261  0.00  0.00    -0.360 OA
HETATM   30  H   UNL     1      -5.344  12.390  21.702  0.00  0.00     0.217 HD
ENDBRANCH   3  29
BRANCH  10  31
HETATM   31  C   UNL     1       0.017  16.990  20.066  0.00  0.00     0.100 C 
BRANCH  31  32
HETATM   32  C   UNL     1       0.821  16.340  21.192  0.00  0.00    -0.052 A 
HETATM   33  C   UNL     1       0.571  16.564  22.551  0.00  0.00     0.007 A 
HETATM   34  C   UNL     1       1.342  15.956  23.545  0.00  0.00     0.001 A 
HETATM   35  C   UNL     1       2.445  15.180  23.204  0.00  0.00     0.007 A 
HETATM   36  C   UNL     1       2.813  15.038  21.864  0.00  0.00    -0.061 A 
HETATM   37  C   UNL     1       1.979  15.580  20.866  0.00  0.00     0.014 A 
HETATM   38  C   UNL     1       4.099  14.322  21.539  0.00  0.00     0.048 C 
ENDBRANCH  31  32
ENDBRANCH  10  31
TORSDOF 6
ENDMDL
MODEL 3
REMARK VINA RESULT:    -9.756      1.345      2.115
REMARK INTER + INTRA:         -14.180
REMARK INTER:                 -12.698
REMARK INTRA:                  -1.482
REMARK UNBOUND:                -1.287
REMARK  6 active torsions:
REMARK  status: ('A' for Active; 'I' for Inactive)
REMARK    1  A    between atoms: N_8  and  C_9 
REMARK    2  A    between atoms: C_14  and  N_15 
REMARK       I    between atoms: N_15  and  C_17 
REMARK    3  A    between atoms: C_17  and  C_19 
REMARK    4  A    between atoms: C_21  and  O_22 
REMARK    5  A    between atoms: C_29  and  C_30 
REMARK    6  A    between atoms: C_30  and  C_31 
ROOT
HETATM    1  C   UNL     1      -2.598  13.429  21.922  0.00  0.00     0.066 C 
HETATM    2  C   UNL     1      -1.949  14.336  21.057  0.00  0.00     0.035 C 
HETATM    3  C   UNL     1      -3.986  13.604  22.127  0.00  0.00     0.083 C 
HETATM    4  C   UNL     1      -4.692  14.688  21.590  0.00  0.00     0.069 C 
HETATM    5  C   UNL     1      -3.950  15.653  20.901  0.00  0.00     0.065 A 
HETATM    6  C   UNL     1      -2.593  15.530  20.647  0.00  0.00     0.020 A 
HETATM    7  N   UNL     1      -4.313  16.838  20.323  0.00  0.00    -0.277 N 
HETATM    8  H   UNL     1      -5.247  17.228  20.259  0.00  0.00     0.189 HD
HETATM    9  N   UNL     1      -3.284  17.550  19.838  0.00  0.00    -0.178 NA
HETATM   10  C   UNL     1      -2.207  16.775  20.036  0.00  0.00     0.071 A 
ENDROOT
BRANCH   1  11
HETATM   11  C   UNL     1      -1.875  12.316  22.667  0.00  0.00     0.260 C 
HETATM   12  N   UNL     1      -1.107  12.579  23.844  0.00  0.00    -0.318 N 
HETATM   13  C   UNL     1      -1.047  13.928  24.420  0.00  0.00     0.159 C 
HETATM   14  O   UNL     1      -2.068  11.193  22.204  0.00  0.00    -0.267 OA
BRANCH  12  15
HETATM   15  C   UNL     1      -0.444  11.534  24.626  0.00  0.00     0.037 C 
HETATM   16  C   UNL     1      -1.129  10.889  25.666  0.00  0.00     0.032 C 
HETATM   17  C   UNL     1      -0.633   9.742  26.307  0.00  0.00     0.031 C 
HETATM   18  C   UNL     1       0.603   9.180  25.985  0.00  0.00     0.030 C 
HETATM   19  C   UNL     1       1.365   9.919  25.073  0.00  0.00     0.031 C 
HETATM   20  C   UNL     1       0.853  11.065  24.402  0.00  0.00     0.032 C 
BRANCH  18  21
HETATM   21  N   UNL     1       1.014   7.999  26.597  0.00  0.00    -0.378 N 
HETATM   22  C   UNL     1       0.208   6.769  26.533  0.00  0.00     0.150 C 
HETATM   23  C   UNL     1      -0.678   6.606  27.787  0.00  0.00     0.254 C 
HETATM   24  N   UNL     1       0.161   6.705  29.067  0.00  0.00    -0.072 N 
HETATM   25  H   UNL     1       0.832   5.927  29.047  0.00  0.00     0.279 HD
HETATM   26  C   UNL     1      -0.676   6.555  30.301  0.00  0.00     0.269 C 
HETATM   27  C   UNL     1       0.979   7.997  29.087  0.00  0.00     0.254 C 
HETATM   28  C   UNL     1       1.849   8.103  27.817  0.00  0.00     0.150 C 
ENDBRANCH  18  21
ENDBRANCH  12  15
ENDBRANCH   1  11
BRANCH   3  29
HETATM   29  O   UNL     1      -4.749  12.734  22.871  0.00  0.00    -0.360 OA
HETATM   30  H   UNL     1      -5.644  12.699  22.468  0.00  0.00     0.217 HD
ENDBRANCH   3  29
BRANCH  10  31
HETATM   31  C   UNL     1      -0.850  17.304  19.624  0.00  0.00     0.100 C 
BRANCH  31  32
HETATM   32  C   UNL     1       0.243  16.941  20.630  0.00  0.00    -0.052 A 
HETATM   33  C   UNL     1       0.178  17.257  21.992  0.00  0.00     0.007 A 
HETATM   34  C   UNL     1       1.208  16.915  22.870  0.00  0.00     0.001 A 
HETATM   35  C   UNL     1       2.377  16.330  22.393  0.00  0.00     0.007 A 
HETATM   36  C   UNL     1       2.542  16.118  21.022  0.00  0.00    -0.061 A 
HETATM   37  C   UNL     1       1.463  16.384  20.154  0.00  0.00     0.014 A 
HETATM   38  C   UNL     1       3.877  15.628  20.521  0.00  0.00     0.048 C 
ENDBRANCH  31  32
ENDBRANCH  10  31
TORSDOF 6
ENDMDL
MODEL 4
REMARK VINA RESULT:    -9.730      1.514      2.349
REMARK INTER + INTRA:         -14.146
REMARK INTER:                 -12.843
REMARK INTRA:                  -1.302
REMARK UNBOUND:                -1.287
REMARK  6 active torsions:
REMARK  status: ('A' for Active; 'I' for Inactive)
REMARK    1  A    between atoms: N_8  and  C_9 
REMARK    2  A    between atoms: C_14  and  N_15 
REMARK       I    between atoms: N_15  and  C_17 
REMARK    3  A    between atoms: C_17  and  C_19 
REMARK    4  A    between atoms: C_21  and  O_22 
REMARK    5  A    between atoms: C_29  and  C_30 
REMARK    6  A    between atoms: C_30  and  C_31 
ROOT
HETATM    1  C   UNL     1      -2.817  13.449  21.701  0.00  0.00     0.066 C 
HETATM    2  C   UNL     1      -1.855  14.238  21.033  0.00  0.00     0.035 C 
HETATM    3  C   UNL     1      -4.156  13.902  21.686  0.00  0.00     0.083 C 
HETATM    4  C   UNL     1      -4.524  15.133  21.128  0.00  0.00     0.069 C 
HETATM    5  C   UNL     1      -3.494  15.951  20.653  0.00  0.00     0.065 A 
HETATM    6  C   UNL     1      -2.165  15.557  20.619  0.00  0.00     0.020 A 
HETATM    7  N   UNL     1      -3.504  17.210  20.121  0.00  0.00    -0.277 N 
HETATM    8  H   UNL     1      -4.315  17.790  19.933  0.00  0.00     0.189 HD
HETATM    9  N   UNL     1      -2.284  17.711  19.872  0.00  0.00    -0.178 NA
HETATM   10  C   UNL     1      -1.436  16.719  20.183  0.00  0.00     0.071 A 
ENDROOT
BRANCH   1  11
HETATM   11  C   UNL     1      -2.475  12.177  22.464  0.00  0.00     0.260 C 
HETATM   12  N   UNL     1      -1.820  12.219  23.735  0.00  0.00    -0.318 N 
HETATM   13  C   UNL     1      -1.517  13.499  24.385  0.00  0.00     0.159 C 
HETATM   14  O   UNL     1      -2.868  11.145  21.922  0.00  0.00    -0.267 OA
BRANCH  12  15
HETATM   15  C   UNL     1      -1.526  11.026  24.531  0.00  0.00     0.037 C 
HETATM   16  C   UNL     1      -0.848   9.942  23.955  0.00  0.00     0.032 C 
HETATM   17  C   UNL     1      -0.349   8.868  24.711  0.00  0.00     0.031 C 
HETATM   18  C   UNL     1      -0.527   8.779  26.092  0.00  0.00     0.030 C 
HETATM   19  C   UNL     1      -1.351   9.767  26.644  0.00  0.00     0.031 C 
HETATM   20  C   UNL     1      -1.834  10.870  25.885  0.00  0.00     0.032 C 
BRANCH  18  21
HETATM   21  N   UNL     1       0.053   7.733  26.804  0.00  0.00    -0.378 N 
HETATM   22  C   UNL     1      -0.620   7.110  27.956  0.00  0.00     0.150 C 
HETATM   23  C   UNL     1      -0.136   7.716  29.291  0.00  0.00     0.254 C 
HETATM   24  N   UNL     1       1.394   7.667  29.392  0.00  0.00    -0.072 N 
HETATM   25  H   UNL     1       1.664   6.676  29.377  0.00  0.00     0.279 HD
HETATM   26  C   UNL     1       1.891   8.255  30.678  0.00  0.00     0.269 C 
HETATM   27  C   UNL     1       2.046   8.325  28.176  0.00  0.00     0.254 C 
HETATM   28  C   UNL     1       1.532   7.675  26.873  0.00  0.00     0.150 C 
ENDBRANCH  18  21
ENDBRANCH  12  15
ENDBRANCH   1  11
BRANCH   3  29
HETATM   29  O   UNL     1      -5.197  13.179  22.220  0.00  0.00    -0.360 OA
HETATM   30  H   UNL     1      -5.381  13.535  23.117  0.00  0.00     0.217 HD
ENDBRANCH   3  29
BRANCH  10  31
HETATM   31  C   UNL     1       0.051  16.969  20.047  0.00  0.00     0.100 C 
BRANCH  31  32
HETATM   32  C   UNL     1       0.855  16.304  21.164  0.00  0.00    -0.052 A 
HETATM   33  C   UNL     1       0.596  16.497  22.526  0.00  0.00     0.007 A 
HETATM   34  C   UNL     1       1.367  15.876  23.511  0.00  0.00     0.001 A 
HETATM   35  C   UNL     1       2.479  15.117  23.161  0.00  0.00     0.007 A 
HETATM   36  C   UNL     1       2.856  15.006  21.820  0.00  0.00    -0.061 A 
HETATM   37  C   UNL     1       2.022  15.562  20.828  0.00  0.00     0.014 A 
HETATM   38  C   UNL     1       4.150  14.309  21.487  0.00  0.00     0.048 C 
ENDBRANCH  31  32
ENDBRANCH  10  31
TORSDOF 6
ENDMDL
MODEL 5
REMARK VINA RESULT:    -9.123      2.609      4.708
REMARK INTER + INTRA:         -13.343
REMARK INTER:                 -12.257
REMARK INTRA:                  -1.086
REMARK UNBOUND:                -1.287
REMARK  6 active torsions:
REMARK  status: ('A' for Active; 'I' for Inactive)
REMARK    1  A    between atoms: N_8  and  C_9 
REMARK    2  A    between atoms: C_14  and  N_15 
REMARK       I    between atoms: N_15  and  C_17 
REMARK    3  A    between atoms: C_17  and  C_19 
REMARK    4  A    between atoms: C_21  and  O_22 
REMARK    5  A    between atoms: C_29  and  C_30 
REMARK    6  A    between atoms: C_30  and  C_31 
ROOT
HETATM    1  C   UNL     1      -1.783  10.487  24.762  0.00  0.00     0.066 C 
HETATM    2  C   UNL     1      -2.299  11.019  23.560  0.00  0.00     0.035 C 
HETATM    3  C   UNL     1      -2.304  10.993  25.975  0.00  0.00     0.083 C 
HETATM    4  C   UNL     1      -3.220  12.053  26.012  0.00  0.00     0.069 C 
HETATM    5  C   UNL     1      -3.543  12.659  24.794  0.00  0.00     0.065 A 
HETATM    6  C   UNL     1      -3.085  12.198  23.570  0.00  0.00     0.020 A 
HETATM    7  N   UNL     1      -4.335  13.733  24.494  0.00  0.00    -0.277 N 
HETATM    8  H   UNL     1      -4.887  14.287  25.140  0.00  0.00     0.189 HD
HETATM    9  N   UNL     1      -4.317  14.083  23.198  0.00  0.00    -0.178 NA
HETATM   10  C   UNL     1      -3.543  13.163  22.605  0.00  0.00     0.071 A 
ENDROOT
BRANCH   1  11
HETATM   11  C   UNL     1      -0.675   9.444  24.811  0.00  0.00     0.260 C 
HETATM   12  N   UNL     1       0.693   9.793  24.588  0.00  0.00    -0.318 N 
HETATM   13  C   UNL     1       1.090  11.189  24.375  0.00  0.00     0.159 C 
HETATM   14  O   UNL     1      -1.061   8.316  25.118  0.00  0.00    -0.267 OA
BRANCH  12  15
HETATM   15  C   UNL     1       1.796   8.835  24.685  0.00  0.00     0.037 C 
HETATM   16  C   UNL     1       2.028   7.918  23.649  0.00  0.00     0.032 C 
HETATM   17  C   UNL     1       3.186   7.126  23.580  0.00  0.00     0.031 C 
HETATM   18  C   UNL     1       4.177   7.162  24.561  0.00  0.00     0.030 C 
HETATM   19  C   UNL     1       3.869   7.944  25.680  0.00  0.00     0.031 C 
HETATM   20  C   UNL     1       2.710   8.769  25.740  0.00  0.00     0.032 C 
BRANCH  18  21
HETATM   21  N   UNL     1       5.340   6.413  24.406  0.00  0.00    -0.378 N 
HETATM   22  C   UNL     1       6.329   6.722  23.360  0.00  0.00     0.150 C 
HETATM   23  C   UNL     1       6.114   5.851  22.102  0.00  0.00     0.254 C 
HETATM   24  N   UNL     1       6.074   4.362  22.468  0.00  0.00    -0.072 N 
HETATM   25  H   UNL     1       6.992   4.126  22.866  0.00  0.00     0.279 HD
HETATM   26  C   UNL     1       5.861   3.494  21.265  0.00  0.00     0.269 C 
HETATM   27  C   UNL     1       5.034   4.093  23.556  0.00  0.00     0.254 C 
HETATM   28  C   UNL     1       5.302   4.982  24.789  0.00  0.00     0.150 C 
ENDBRANCH  18  21
ENDBRANCH  12  15
ENDBRANCH   1  11
BRANCH   3  29
HETATM   29  O   UNL     1      -1.952  10.495  27.207  0.00  0.00    -0.360 OA
HETATM   30  H   UNL     1      -2.531   9.724  27.395  0.00  0.00     0.217 HD
ENDBRANCH   3  29
BRANCH  10  31
HETATM   31  C   UNL     1      -3.282  13.286  21.119  0.00  0.00     0.100 C 
BRANCH  31  32
HETATM   32  C   UNL     1      -2.990  14.727  20.699  0.00  0.00    -0.052 A 
HETATM   33  C   UNL     1      -3.843  15.485  19.888  0.00  0.00     0.007 A 
HETATM   34  C   UNL     1      -3.526  16.795  19.521  0.00  0.00     0.001 A 
HETATM   35  C   UNL     1      -2.302  17.351  19.879  0.00  0.00     0.007 A 
HETATM   36  C   UNL     1      -1.363  16.586  20.574  0.00  0.00    -0.061 A 
HETATM   37  C   UNL     1      -1.726  15.297  21.017  0.00  0.00     0.014 A 
HETATM   38  C   UNL     1       0.009  17.163  20.810  0.00  0.00     0.048 C 
ENDBRANCH  31  32
ENDBRANCH  10  31
TORSDOF 6
ENDMDL
MODEL 6
REMARK VINA RESULT:    -9.059      2.099      3.064
REMARK INTER + INTRA:         -13.258
REMARK INTER:                 -11.778
REMARK INTRA:                  -1.480
REMARK UNBOUND:                -1.287
REMARK  6 active torsions:
REMARK  status: ('A' for Active; 'I' for Inactive)
REMARK    1  A    between atoms: N_8  and  C_9 
REMARK    2  A    between atoms: C_14  and  N_15 
REMARK       I    between atoms: N_15  and  C_17 
REMARK    3  A    between atoms: C_17  and  C_19 
REMARK    4  A    between atoms: C_21  and  O_22 
REMARK    5  A    between atoms: C_29  and  C_30 
REMARK    6  A    between atoms: C_30  and  C_31 
ROOT
HETATM    1  C   UNL     1      -1.205  12.685  22.120  0.00  0.00     0.066 C 
HETATM    2  C   UNL     1      -0.532  13.907  21.900  0.00  0.00     0.035 C 
HETATM    3  C   UNL     1      -2.435  12.490  21.451  0.00  0.00     0.083 C 
HETATM    4  C   UNL     1      -3.036  13.493  20.680  0.00  0.00     0.069 C 
HETATM    5  C   UNL     1      -2.410  14.743  20.661  0.00  0.00     0.065 A 
HETATM    6  C   UNL     1      -1.193  14.994  21.275  0.00  0.00     0.020 A 
HETATM    7  N   UNL     1      -2.760  15.927  20.073  0.00  0.00    -0.277 N 
HETATM    8  H   UNL     1      -3.567  16.104  19.484  0.00  0.00     0.189 HD
HETATM    9  N   UNL     1      -1.943  16.950  20.369  0.00  0.00    -0.178 NA
HETATM   10  C   UNL     1      -0.974  16.408  21.121  0.00  0.00     0.071 A 
ENDROOT
BRANCH   1  11
HETATM   11  C   UNL     1      -0.696  11.606  23.065  0.00  0.00     0.260 C 
HETATM   12  N   UNL     1      -0.755  11.764  24.484  0.00  0.00    -0.318 N 
HETATM   13  C   UNL     1      -1.377  12.949  25.086  0.00  0.00     0.159 C 
HETATM   14  O   UNL     1      -0.303  10.587  22.498  0.00  0.00    -0.267 OA
BRANCH  12  15
HETATM   15  C   UNL     1      -0.334  10.729  25.430  0.00  0.00     0.037 C 
HETATM   16  C   UNL     1      -1.265  10.150  26.304  0.00  0.00     0.032 C 
HETATM   17  C   UNL     1      -0.977   9.013  27.078  0.00  0.00     0.031 C 
HETATM   18  C   UNL     1       0.275   8.398  27.066  0.00  0.00     0.030 C 
HETATM   19  C   UNL     1       1.256   9.073  26.332  0.00  0.00     0.031 C 
HETATM   20  C   UNL     1       0.959  10.208  25.526  0.00  0.00     0.032 C 
BRANCH  18  21
HETATM   21  N   UNL     1       0.485   7.229  27.793  0.00  0.00    -0.378 N 
HETATM   22  C   UNL     1      -0.577   6.624  28.614  0.00  0.00     0.150 C 
HETATM   23  C   UNL     1      -0.463   7.053  30.094  0.00  0.00     0.254 C 
HETATM   24  N   UNL     1       0.945   6.778  30.637  0.00  0.00    -0.072 N 
HETATM   25  H   UNL     1       1.093   5.762  30.588  0.00  0.00     0.279 HD
HETATM   26  C   UNL     1       1.085   7.191  32.071  0.00  0.00     0.269 C 
HETATM   27  C   UNL     1       2.010   7.426  29.751  0.00  0.00     0.254 C 
HETATM   28  C   UNL     1       1.854   6.955  28.289  0.00  0.00     0.150 C 
ENDBRANCH  18  21
ENDBRANCH  12  15
ENDBRANCH   1  11
BRANCH   3  29
HETATM   29  O   UNL     1      -3.140  11.310  21.510  0.00  0.00    -0.360 OA
HETATM   30  H   UNL     1      -3.851  11.418  22.179  0.00  0.00     0.217 HD
ENDBRANCH   3  29
BRANCH  10  31
HETATM   31  C   UNL     1       0.113  17.312  21.662  0.00  0.00     0.100 C 
BRANCH  31  32
HETATM   32  C   UNL     1       1.513  16.760  21.393  0.00  0.00    -0.052 A 
HETATM   33  C   UNL     1       2.110  16.746  20.126  0.00  0.00     0.007 A 
HETATM   34  C   UNL     1       3.388  16.219  19.928  0.00  0.00     0.001 A 
HETATM   35  C   UNL     1       4.068  15.606  20.975  0.00  0.00     0.007 A 
HETATM   36  C   UNL     1       3.457  15.477  22.225  0.00  0.00    -0.061 A 
HETATM   37  C   UNL     1       2.205  16.090  22.440  0.00  0.00     0.014 A 
HETATM   38  C   UNL     1       4.154  14.673  23.292  0.00  0.00     0.048 C 
ENDBRANCH  31  32
ENDBRANCH  10  31
TORSDOF 6
ENDMDL
MODEL 7
REMARK VINA RESULT:    -8.935      2.621      4.570
REMARK INTER + INTRA:         -13.095
REMARK INTER:                 -11.874
REMARK INTRA:                  -1.221
REMARK UNBOUND:                -1.287
REMARK  6 active torsions:
REMARK  status: ('A' for Active; 'I' for Inactive)
REMARK    1  A    between atoms: N_8  and  C_9 
REMARK    2  A    between atoms: C_14  and  N_15 
REMARK       I    between atoms: N_15  and  C_17 
REMARK    3  A    between atoms: C_17  and  C_19 
REMARK    4  A    between atoms: C_21  and  O_22 
REMARK    5  A    between atoms: C_29  and  C_30 
REMARK    6  A    between atoms: C_30  and  C_31 
ROOT
HETATM    1  C   UNL     1      -1.695  10.499  24.777  0.00  0.00     0.066 C 
HETATM    2  C   UNL     1      -2.209  11.007  23.564  0.00  0.00     0.035 C 
HETATM    3  C   UNL     1      -2.253  10.992  25.979  0.00  0.00     0.083 C 
HETATM    4  C   UNL     1      -3.205  12.020  25.996  0.00  0.00     0.069 C 
HETATM    5  C   UNL     1      -3.529  12.609  24.770  0.00  0.00     0.065 A 
HETATM    6  C   UNL     1      -3.035  12.159  23.556  0.00  0.00     0.020 A 
HETATM    7  N   UNL     1      -4.353  13.654  24.452  0.00  0.00    -0.277 N 
HETATM    8  H   UNL     1      -4.934  14.190  25.087  0.00  0.00     0.189 HD
HETATM    9  N   UNL     1      -4.326  13.999  23.155  0.00  0.00    -0.178 NA
HETATM   10  C   UNL     1      -3.511  13.103  22.579  0.00  0.00     0.071 A 
ENDROOT
BRANCH   1  11
HETATM   11  C   UNL     1      -0.553   9.495  24.849  0.00  0.00     0.260 C 
HETATM   12  N   UNL     1       0.804   9.888  24.632  0.00  0.00    -0.318 N 
HETATM   13  C   UNL     1       1.156  11.294  24.402  0.00  0.00     0.159 C 
HETATM   14  O   UNL     1      -0.902   8.360  25.169  0.00  0.00    -0.267 OA
BRANCH  12  15
HETATM   15  C   UNL     1       1.939   8.970  24.750  0.00  0.00     0.037 C 
HETATM   16  C   UNL     1       2.795   9.044  25.858  0.00  0.00     0.032 C 
HETATM   17  C   UNL     1       3.763   8.066  26.139  0.00  0.00     0.031 C 
HETATM   18  C   UNL     1       3.974   6.963  25.310  0.00  0.00     0.030 C 
HETATM   19  C   UNL     1       3.244   6.976  24.116  0.00  0.00     0.031 C 
HETATM   20  C   UNL     1       2.244   7.951  23.843  0.00  0.00     0.032 C 
BRANCH  18  21
HETATM   21  N   UNL     1       4.893   5.983  25.674  0.00  0.00    -0.378 N 
HETATM   22  C   UNL     1       5.275   4.897  24.756  0.00  0.00     0.150 C 
HETATM   23  C   UNL     1       4.454   3.616  25.021  0.00  0.00     0.254 C 
HETATM   24  N   UNL     1       4.537   3.209  26.497  0.00  0.00    -0.072 N 
HETATM   25  H   UNL     1       5.523   3.001  26.697  0.00  0.00     0.279 HD
HETATM   26  C   UNL     1       3.743   1.970  26.783  0.00  0.00     0.269 C 
HETATM   27  C   UNL     1       4.131   4.368  27.409  0.00  0.00     0.254 C 
HETATM   28  C   UNL     1       4.988   5.615  27.106  0.00  0.00     0.150 C 
ENDBRANCH  18  21
ENDBRANCH  12  15
ENDBRANCH   1  11
BRANCH   3  29
HETATM   29  O   UNL     1      -1.904  10.512  27.219  0.00  0.00    -0.360 OA
HETATM   30  H   UNL     1      -2.555   9.818  27.467  0.00  0.00     0.217 HD
ENDBRANCH   3  29
BRANCH  10  31
HETATM   31  C   UNL     1      -3.230  13.229  21.097  0.00  0.00     0.100 C 
BRANCH  31  32
HETATM   32  C   UNL     1      -2.989  14.678  20.673  0.00  0.00    -0.052 A 
HETATM   33  C   UNL     1      -3.857  15.397  19.843  0.00  0.00     0.007 A 
HETATM   34  C   UNL     1      -3.587  16.717  19.474  0.00  0.00     0.001 A 
HETATM   35  C   UNL     1      -2.392  17.323  19.849  0.00  0.00     0.007 A 
HETATM   36  C   UNL     1      -1.436  16.599  20.565  0.00  0.00    -0.061 A 
HETATM   37  C   UNL     1      -1.754  15.300  21.009  0.00  0.00     0.014 A 
HETATM   38  C   UNL     1      -0.092  17.232  20.821  0.00  0.00     0.048 C 
ENDBRANCH  31  32
ENDBRANCH  10  31
TORSDOF 6
ENDMDL
MODEL 8
REMARK VINA RESULT:    -8.730      2.509      3.587
REMARK INTER + INTRA:         -12.824
REMARK INTER:                 -11.714
REMARK INTRA:                  -1.110
REMARK UNBOUND:                -1.287
REMARK  6 active torsions:
REMARK  status: ('A' for Active; 'I' for Inactive)
REMARK    1  A    between atoms: N_8  and  C_9 
REMARK    2  A    between atoms: C_14  and  N_15 
REMARK       I    between atoms: N_15  and  C_17 
REMARK    3  A    between atoms: C_17  and  C_19 
REMARK    4  A    between atoms: C_21  and  O_22 
REMARK    5  A    between atoms: C_29  and  C_30 
REMARK    6  A    between atoms: C_30  and  C_31 
ROOT
HETATM    1  C   UNL     1      -2.300  13.244  23.399  0.00  0.00     0.066 C 
HETATM    2  C   UNL     1      -1.404  14.198  22.867  0.00  0.00     0.035 C 
HETATM    3  C   UNL     1      -3.594  13.179  22.833  0.00  0.00     0.083 C 
HETATM    4  C   UNL     1      -4.030  14.082  21.855  0.00  0.00     0.069 C 
HETATM    5  C   UNL     1      -3.158  15.119  21.511  0.00  0.00     0.065 A 
HETATM    6  C   UNL     1      -1.870  15.227  22.012  0.00  0.00     0.020 A 
HETATM    7  N   UNL     1      -3.297  16.180  20.660  0.00  0.00    -0.277 N 
HETATM    8  H   UNL     1      -4.093  16.390  20.067  0.00  0.00     0.189 HD
HETATM    9  N   UNL     1      -2.261  17.034  20.673  0.00  0.00    -0.178 NA
HETATM   10  C   UNL     1      -1.371  16.480  21.509  0.00  0.00     0.071 A 
ENDROOT
BRANCH   1  11
HETATM   11  C   UNL     1      -1.956  12.330  24.567  0.00  0.00     0.260 C 
HETATM   12  N   UNL     1      -1.499  10.991  24.361  0.00  0.00    -0.318 N 
HETATM   13  C   UNL     1      -1.275  10.471  23.007  0.00  0.00     0.159 C 
HETATM   14  O   UNL     1      -2.046  12.869  25.670  0.00  0.00    -0.267 OA
BRANCH  12  15
HETATM   15  C   UNL     1      -1.100  10.098  25.450  0.00  0.00     0.037 C 
HETATM   16  C   UNL     1      -0.133   9.106  25.231  0.00  0.00     0.032 C 
HETATM   17  C   UNL     1       0.446   8.365  26.275  0.00  0.00     0.031 C 
HETATM   18  C   UNL     1       0.071   8.532  27.608  0.00  0.00     0.030 C 
HETATM   19  C   UNL     1      -1.014   9.393  27.811  0.00  0.00     0.031 C 
HETATM   20  C   UNL     1      -1.582  10.165  26.759  0.00  0.00     0.032 C 
BRANCH  18  21
HETATM   21  N   UNL     1       0.730   7.827  28.612  0.00  0.00    -0.378 N 
HETATM   22  C   UNL     1       0.209   6.555  29.138  0.00  0.00     0.150 C 
HETATM   23  C   UNL     1      -0.616   6.770  30.426  0.00  0.00     0.254 C 
HETATM   24  N   UNL     1       0.187   7.563  31.464  0.00  0.00    -0.072 N 
HETATM   25  H   UNL     1       1.010   6.997  31.704  0.00  0.00     0.279 HD
HETATM   26  C   UNL     1      -0.593   7.791  32.723  0.00  0.00     0.269 C 
HETATM   27  C   UNL     1       0.706   8.874  30.871  0.00  0.00     0.254 C 
HETATM   28  C   UNL     1       1.528   8.598  29.594  0.00  0.00     0.150 C 
ENDBRANCH  18  21
ENDBRANCH  12  15
ENDBRANCH   1  11
BRANCH   3  29
HETATM   29  O   UNL     1      -4.524  12.235  23.200  0.00  0.00    -0.360 OA
HETATM   30  H   UNL     1      -5.325  12.709  23.514  0.00  0.00     0.217 HD
ENDBRANCH   3  29
BRANCH  10  31
HETATM   31  C   UNL     1      -0.077  17.218  21.780  0.00  0.00     0.100 C 
BRANCH  31  32
HETATM   32  C   UNL     1       1.153  16.352  21.508  0.00  0.00    -0.052 A 
HETATM   33  C   UNL     1       1.534  15.927  20.230  0.00  0.00     0.007 A 
HETATM   34  C   UNL     1       2.660  15.125  20.033  0.00  0.00     0.001 A 
HETATM   35  C   UNL     1       3.384  14.647  21.121  0.00  0.00     0.007 A 
HETATM   36  C   UNL     1       2.962  14.935  22.421  0.00  0.00    -0.061 A 
HETATM   37  C   UNL     1       1.878  15.817  22.609  0.00  0.00     0.014 A 
HETATM   38  C   UNL     1       3.674  14.276  23.575  0.00  0.00     0.048 C 
ENDBRANCH  31  32
ENDBRANCH  10  31
TORSDOF 6
ENDMDL
MODEL 9
REMARK VINA RESULT:    -8.549      2.371      4.716
REMARK INTER + INTRA:         -12.585
REMARK INTER:                 -11.298
REMARK INTRA:                  -1.287
REMARK UNBOUND:                -1.287
REMARK  6 active torsions:
REMARK  status: ('A' for Active; 'I' for Inactive)
REMARK    1  A    between atoms: N_8  and  C_9 
REMARK    2  A    between atoms: C_14  and  N_15 
REMARK       I    between atoms: N_15  and  C_17 
REMARK    3  A    between atoms: C_17  and  C_19 
REMARK    4  A    between atoms: C_21  and  O_22 
REMARK    5  A    between atoms: C_29  and  C_30 
REMARK    6  A    between atoms: C_30  and  C_31 
ROOT
HETATM    1  C   UNL     1       1.087  14.848  22.528  0.00  0.00     0.066 C 
HETATM    2  C   UNL     1       0.074  15.768  22.180  0.00  0.00     0.035 C 
HETATM    3  C   UNL     1       2.356  15.017  21.927  0.00  0.00     0.083 C 
HETATM    4  C   UNL     1       2.595  15.985  20.943  0.00  0.00     0.069 C 
HETATM    5  C   UNL     1       1.499  16.736  20.508  0.00  0.00     0.065 A 
HETATM    6  C   UNL     1       0.236  16.635  21.070  0.00  0.00     0.020 A 
HETATM    7  N   UNL     1       1.379  17.694  19.539  0.00  0.00    -0.277 N 
HETATM    8  H   UNL     1       2.119  18.074  18.959  0.00  0.00     0.189 HD
HETATM    9  N   UNL     1       0.121  18.119  19.340  0.00  0.00    -0.178 NA
HETATM   10  C   UNL     1      -0.609  17.473  20.261  0.00  0.00     0.071 A 
ENDROOT
BRANCH   1  11
HETATM   11  C   UNL     1       0.866  13.674  23.471  0.00  0.00     0.260 C 
HETATM   12  N   UNL     1       0.077  12.544  23.089  0.00  0.00    -0.318 N 
HETATM   13  C   UNL     1      -0.492  12.443  21.740  0.00  0.00     0.159 C 
HETATM   14  O   UNL     1       1.473  13.765  24.538  0.00  0.00    -0.267 OA
BRANCH  12  15
HETATM   15  C   UNL     1      -0.113  11.368  23.939  0.00  0.00     0.037 C 
HETATM   16  C   UNL     1       0.558  10.171  23.649  0.00  0.00     0.032 C 
HETATM   17  C   UNL     1       0.589   9.082  24.536  0.00  0.00     0.031 C 
HETATM   18  C   UNL     1      -0.083   9.094  25.759  0.00  0.00     0.030 C 
HETATM   19  C   UNL     1      -0.895  10.213  25.974  0.00  0.00     0.031 C 
HETATM   20  C   UNL     1      -0.905  11.329  25.090  0.00  0.00     0.032 C 
BRANCH  18  21
HETATM   21  N   UNL     1       0.042   8.018  26.634  0.00  0.00    -0.378 N 
HETATM   22  C   UNL     1      -0.702   7.958  27.903  0.00  0.00     0.150 C 
HETATM   23  C   UNL     1       0.152   8.465  29.086  0.00  0.00     0.254 C 
HETATM   24  N   UNL     1       1.496   7.729  29.144  0.00  0.00    -0.072 N 
HETATM   25  H   UNL     1       1.288   6.736  29.305  0.00  0.00     0.279 HD
HETATM   26  C   UNL     1       2.349   8.206  30.281  0.00  0.00     0.269 C 
HETATM   27  C   UNL     1       2.230   7.820  27.806  0.00  0.00     0.254 C 
HETATM   28  C   UNL     1       1.334   7.293  26.664  0.00  0.00     0.150 C 
ENDBRANCH  18  21
ENDBRANCH  12  15
ENDBRANCH   1  11
BRANCH   3  29
HETATM   29  O   UNL     1       3.447  14.246  22.252  0.00  0.00    -0.360 OA
HETATM   30  H   UNL     1       3.941  14.709  22.964  0.00  0.00     0.217 HD
ENDBRANCH   3  29
BRANCH  10  31
HETATM   31  C   UNL     1      -2.105  17.704  20.290  0.00  0.00     0.100 C 
BRANCH  31  32
HETATM   32  C   UNL     1      -2.894  16.395  20.257  0.00  0.00    -0.052 A 
HETATM   33  C   UNL     1      -3.651  15.975  19.158  0.00  0.00     0.007 A 
HETATM   34  C   UNL     1      -4.366  14.775  19.180  0.00  0.00     0.001 A 
HETATM   35  C   UNL     1      -4.419  14.008  20.339  0.00  0.00     0.007 A 
HETATM   36  C   UNL     1      -3.789  14.455  21.503  0.00  0.00    -0.061 A 
HETATM   37  C   UNL     1      -2.997  15.620  21.446  0.00  0.00     0.014 A 
HETATM   38  C   UNL     1      -3.994  13.681  22.780  0.00  0.00     0.048 C 
ENDBRANCH  31  32
ENDBRANCH  10  31
TORSDOF 6
ENDMDL
