MODEL 1
REMARK VINA RESULT:    -9.290      0.000      0.000
REMARK INTER + INTRA:         -12.631
REMARK INTER:                 -11.568
REMARK INTRA:                  -1.062
REMARK UNBOUND:                -0.897
REMARK  5 active torsions:
REMARK  status: ('A' for Active; 'I' for Inactive)
REMARK    1  A    between atoms: N_10  and  C_14 
REMARK    2  A    between atoms: C_17  and  C_18 
REMARK       I    between atoms: C_18  and  N_20 
REMARK    3  A    between atoms: C_22  and  N_23 
REMARK    4  A    between atoms: N_23  and  C_24 
REMARK    5  A    between atoms: C_27  and  O_28 
ROOT
HETATM    1  C   UNL     1       5.374  14.192  23.490  0.00  0.00     0.041 A 
HETATM    2  C   UNL     1       5.352  15.425  24.137  0.00  0.00     0.031 A 
HETATM    3  C   UNL     1       4.354  15.713  25.080  0.00  0.00     0.022 A 
HETATM    4  C   UNL     1       3.343  14.786  25.378  0.00  0.00     0.058 A 
HETATM    5  C   UNL     1       4.306  13.308  23.749  0.00  0.00     0.060 A 
HETATM    6  C   UNL     1       3.286  13.565  24.682  0.00  0.00     0.046 A 
ENDROOT
BRANCH   1   7
HETATM    7  N   UNL     1       6.429  13.768  22.601  0.00  0.00    -0.324 N 
HETATM    8  C   UNL     1       7.725  14.262  22.436  0.00  0.00     0.031 A 
HETATM    9  C   UNL     1       8.397  15.351  23.214  0.00  0.00     0.067 C 
HETATM   10  C   UNL     1       8.356  13.546  21.422  0.00  0.00     0.040 A 
HETATM   11  C   UNL     1       9.943  15.316  23.043  0.00  0.00    -0.036 C 
HETATM   12  C   UNL     1      10.326  15.118  21.557  0.00  0.00     0.093 C 
HETATM   13  C   UNL     1      10.549  14.186  23.905  0.00  0.00     0.015 C 
HETATM   14  C   UNL     1      10.522  16.653  23.535  0.00  0.00     0.015 C 
HETATM   15  C   UNL     1       9.707  13.860  20.971  0.00  0.00     0.162 C 
HETATM   16  O   UNL     1      10.298  13.188  20.128  0.00  0.00    -0.292 OA
HETATM   17  C   UNL     1       7.497  12.501  21.028  0.00  0.00    -0.030 A 
HETATM   18  C   UNL     1       6.338  12.673  21.749  0.00  0.00     0.105 A 
HETATM   19  C   UNL     1       7.777  11.418  20.049  0.00  0.00     0.050 C 
ENDBRANCH   1   7
BRANCH   6  20
HETATM   20  N   UNL     1       2.322  12.599  24.942  0.00  0.00    -0.384 N 
HETATM   21  H   UNL     1       2.336  12.173  25.868  0.00  0.00     0.160 HD
BRANCH  20  22
HETATM   22  C   UNL     1       1.296  12.191  23.991  0.00  0.00     0.082 C 
HETATM   23  C   UNL     1       0.722  13.399  23.241  0.00  0.00     0.027 C 
HETATM   24  C   UNL     1      -0.425  12.979  22.325  0.00  0.00     0.034 C 
HETATM   25  C   UNL     1      -1.527  12.277  23.114  0.00  0.00     0.118 C 
HETATM   26  C   UNL     1      -0.981  11.069  23.872  0.00  0.00     0.034 C 
HETATM   27  C   UNL     1       0.191  11.454  24.768  0.00  0.00     0.027 C 
BRANCH  25  28
HETATM   28  O   UNL     1      -2.567  11.865  22.238  0.00  0.00    -0.396 OA
HETATM   29  H   UNL     1      -2.598  10.893  22.229  0.00  0.00     0.210 HD
ENDBRANCH  25  28
ENDBRANCH  20  22
ENDBRANCH   6  20
BRANCH   4  30
HETATM   30  C   UNL     1       2.405  15.158  26.477  0.00  0.00     0.251 C 
HETATM   31  O   UNL     1       1.345  14.569  26.653  0.00  0.00    -0.268 OA
HETATM   32  N   UNL     1       2.743  16.236  27.250  0.00  0.00    -0.366 N 
HETATM   33  H   UNL     1       3.497  16.845  26.960  0.00  0.00     0.159 HD
HETATM   34  H   UNL     1       2.048  16.584  27.894  0.00  0.00     0.159 HD
ENDBRANCH   4  30
TORSDOF 5
ENDMDL
MODEL 2
REMARK VINA RESULT:    -8.976      1.619      3.374
REMARK INTER + INTRA:         -12.234
REMARK INTER:                 -11.518
REMARK INTRA:                  -0.717
REMARK UNBOUND:                -0.897
REMARK  5 active torsions:
REMARK  status: ('A' for Active; 'I' for Inactive)
REMARK    1  A    between atoms: N_10  and  C_14 
REMARK    2  A    between atoms: C_17  and  C_18 
REMARK       I    between atoms: C_18  and  N_20 
REMARK    3  A    between atoms: C_22  and  N_23 
REMARK    4  A    between atoms: N_23  and  C_24 
REMARK    5  A    between atoms: C_27  and  O_28 
ROOT
HETATM    1  C   UNL     1       4.715  14.466  24.123  0.00  0.00     0.041 A 
HETATM    2  C   UNL     1       4.920  15.555  24.967  0.00  0.00     0.031 A 
HETATM    3  C   UNL     1       3.985  15.864  25.966  0.00  0.00     0.022 A 
HETATM    4  C   UNL     1       2.815  15.105  26.128  0.00  0.00     0.058 A 
HETATM    5  C   UNL     1       3.498  13.767  24.255  0.00  0.00     0.060 A 
HETATM    6  C   UNL     1       2.536  14.050  25.241  0.00  0.00     0.046 A 
ENDROOT
BRANCH   1   7
HETATM    7  N   UNL     1       5.681  14.008  23.153  0.00  0.00    -0.324 N 
HETATM    8  C   UNL     1       5.897  12.733  22.626  0.00  0.00     0.031 A 
HETATM    9  C   UNL     1       5.111  11.486  22.890  0.00  0.00     0.067 C 
HETATM   10  C   UNL     1       6.976  12.784  21.748  0.00  0.00     0.040 A 
HETATM   11  C   UNL     1       5.371  10.398  21.809  0.00  0.00    -0.036 C 
HETATM   12  C   UNL     1       6.883  10.273  21.508  0.00  0.00     0.093 C 
HETATM   13  C   UNL     1       4.596  10.734  20.516  0.00  0.00     0.015 C 
HETATM   14  C   UNL     1       4.854   9.049  22.337  0.00  0.00     0.015 C 
HETATM   15  C   UNL     1       7.489  11.597  21.072  0.00  0.00     0.162 C 
HETATM   16  O   UNL     1       8.393  11.645  20.241  0.00  0.00    -0.292 OA
HETATM   17  C   UNL     1       7.368  14.132  21.616  0.00  0.00    -0.030 A 
HETATM   18  C   UNL     1       6.574  14.841  22.488  0.00  0.00     0.105 A 
HETATM   19  C   UNL     1       8.408  14.690  20.713  0.00  0.00     0.050 C 
ENDBRANCH   1   7
BRANCH   6  20
HETATM   20  N   UNL     1       1.405  13.252  25.358  0.00  0.00    -0.384 N 
HETATM   21  H   UNL     1       1.411  12.553  26.100  0.00  0.00     0.160 HD
BRANCH  20  22
HETATM   22  C   UNL     1       0.225  13.376  24.513  0.00  0.00     0.082 C 
HETATM   23  C   UNL     1      -0.944  12.552  25.069  0.00  0.00     0.027 C 
HETATM   24  C   UNL     1      -2.143  12.600  24.125  0.00  0.00     0.034 C 
HETATM   25  C   UNL     1      -1.764  12.102  22.732  0.00  0.00     0.118 C 
HETATM   26  C   UNL     1      -0.601  12.906  22.156  0.00  0.00     0.034 C 
HETATM   27  C   UNL     1       0.599  12.906  23.096  0.00  0.00     0.027 C 
BRANCH  25  28
HETATM   28  O   UNL     1      -2.885  12.187  21.863  0.00  0.00    -0.396 OA
HETATM   29  H   UNL     1      -2.585  12.022  20.953  0.00  0.00     0.210 HD
ENDBRANCH  25  28
ENDBRANCH  20  22
ENDBRANCH   6  20
BRANCH   4  30
HETATM   30  C   UNL     1       1.954  15.456  27.295  0.00  0.00     0.251 C 
HETATM   31  O   UNL     1       0.977  14.785  27.605  0.00  0.00    -0.268 OA
HETATM   32  N   UNL     1       2.257  16.605  27.973  0.00  0.00    -0.366 N 
HETATM   33  H   UNL     1       2.918  17.262  27.579  0.00  0.00     0.159 HD
HETATM   34  H   UNL     1       1.595  16.927  28.665  0.00  0.00     0.159 HD
ENDBRANCH   4  30
TORSDOF 5
ENDMDL
MODEL 3
REMARK VINA RESULT:    -8.826      1.836      2.639
REMARK INTER + INTRA:         -12.045
REMARK INTER:                 -10.719
REMARK INTRA:                  -1.327
REMARK UNBOUND:                -0.897
REMARK  5 active torsions:
REMARK  status: ('A' for Active; 'I' for Inactive)
REMARK    1  A    between atoms: N_10  and  C_14 
REMARK    2  A    between atoms: C_17  and  C_18 
REMARK       I    between atoms: C_18  and  N_20 
REMARK    3  A    between atoms: C_22  and  N_23 
REMARK    4  A    between atoms: N_23  and  C_24 
REMARK    5  A    between atoms: C_27  and  O_28 
ROOT
HETATM    1  C   UNL     1       5.772  13.795  23.357  0.00  0.00     0.041 A 
HETATM    2  C   UNL     1       5.811  15.064  23.930  0.00  0.00     0.031 A 
HETATM    3  C   UNL     1       4.808  15.470  24.822  0.00  0.00     0.022 A 
HETATM    4  C   UNL     1       3.732  14.626  25.143  0.00  0.00     0.058 A 
HETATM    5  C   UNL     1       4.644  12.996  23.634  0.00  0.00     0.060 A 
HETATM    6  C   UNL     1       3.617  13.371  24.518  0.00  0.00     0.046 A 
ENDROOT
BRANCH   1   7
HETATM    7  N   UNL     1       6.823  13.254  22.528  0.00  0.00    -0.324 N 
HETATM    8  C   UNL     1       7.658  12.154  22.730  0.00  0.00     0.031 A 
HETATM    9  C   UNL     1       7.631  11.178  23.866  0.00  0.00     0.067 C 
HETATM   10  C   UNL     1       8.545  12.057  21.661  0.00  0.00     0.040 A 
HETATM   11  C   UNL     1       8.400   9.870  23.525  0.00  0.00    -0.036 C 
HETATM   12  C   UNL     1       9.756  10.190  22.852  0.00  0.00     0.093 C 
HETATM   13  C   UNL     1       7.545   8.974  22.601  0.00  0.00     0.015 C 
HETATM   14  C   UNL     1       8.659   9.098  24.830  0.00  0.00     0.015 C 
HETATM   15  C   UNL     1       9.587  11.038  21.602  0.00  0.00     0.162 C 
HETATM   16  O   UNL     1      10.326  10.899  20.630  0.00  0.00    -0.292 OA
HETATM   17  C   UNL     1       8.184  13.028  20.706  0.00  0.00    -0.030 A 
HETATM   18  C   UNL     1       7.151  13.742  21.268  0.00  0.00     0.105 A 
HETATM   19  C   UNL     1       8.776  13.240  19.359  0.00  0.00     0.050 C 
ENDBRANCH   1   7
BRANCH   6  20
HETATM   20  N   UNL     1       2.587  12.484  24.804  0.00  0.00    -0.384 N 
HETATM   21  H   UNL     1       2.578  12.077  25.738  0.00  0.00     0.160 HD
BRANCH  20  22
HETATM   22  C   UNL     1       1.527  12.132  23.869  0.00  0.00     0.082 C 
HETATM   23  C   UNL     1       0.970  13.378  23.168  0.00  0.00     0.027 C 
HETATM   24  C   UNL     1      -0.211  13.017  22.270  0.00  0.00     0.034 C 
HETATM   25  C   UNL     1      -1.313  12.324  23.066  0.00  0.00     0.118 C 
HETATM   26  C   UNL     1      -0.783  11.079  23.775  0.00  0.00     0.034 C 
HETATM   27  C   UNL     1       0.420  11.404  24.652  0.00  0.00     0.027 C 
BRANCH  25  28
HETATM   28  O   UNL     1      -2.386  11.967  22.205  0.00  0.00    -0.396 OA
HETATM   29  H   UNL     1      -2.652  12.753  21.699  0.00  0.00     0.210 HD
ENDBRANCH  25  28
ENDBRANCH  20  22
ENDBRANCH   6  20
BRANCH   4  30
HETATM   30  C   UNL     1       2.790  15.120  26.188  0.00  0.00     0.251 C 
HETATM   31  O   UNL     1       1.714  14.576  26.402  0.00  0.00    -0.268 OA
HETATM   32  N   UNL     1       3.145  16.257  26.863  0.00  0.00    -0.366 N 
HETATM   33  H   UNL     1       3.917  16.819  26.530  0.00  0.00     0.159 HD
HETATM   34  H   UNL     1       2.450  16.680  27.462  0.00  0.00     0.159 HD
ENDBRANCH   4  30
TORSDOF 5
ENDMDL
MODEL 4
REMARK VINA RESULT:    -8.752      3.072      5.719
REMARK INTER + INTRA:         -11.951
REMARK INTER:                 -10.642
REMARK INTRA:                  -1.309
REMARK UNBOUND:                -0.897
REMARK  5 active torsions:
REMARK  status: ('A' for Active; 'I' for Inactive)
REMARK    1  A    between atoms: N_10  and  C_14 
REMARK    2  A    between atoms: C_17  and  C_18 
REMARK       I    between atoms: C_18  and  N_20 
REMARK    3  A    between atoms: C_22  and  N_23 
REMARK    4  A    between atoms: N_23  and  C_24 
REMARK    5  A    between atoms: C_27  and  O_28 
ROOT
HETATM    1  C   UNL     1       1.768  12.666  23.786  0.00  0.00     0.041 A 
HETATM    2  C   UNL     1       1.149  13.343  22.738  0.00  0.00     0.031 A 
HETATM    3  C   UNL     1      -0.182  13.061  22.399  0.00  0.00     0.022 A 
HETATM    4  C   UNL     1      -0.917  12.079  23.085  0.00  0.00     0.058 A 
HETATM    5  C   UNL     1       1.037  11.633  24.408  0.00  0.00     0.060 A 
HETATM    6  C   UNL     1      -0.297  11.319  24.092  0.00  0.00     0.046 A 
ENDROOT
BRANCH   1   7
HETATM    7  N   UNL     1       3.089  12.979  24.278  0.00  0.00    -0.324 N 
HETATM    8  C   UNL     1       4.318  12.372  24.015  0.00  0.00     0.031 A 
HETATM    9  C   UNL     1       4.601  11.245  23.069  0.00  0.00     0.067 C 
HETATM   10  C   UNL     1       5.306  13.009  24.761  0.00  0.00     0.040 A 
HETATM   11  C   UNL     1       6.115  11.144  22.725  0.00  0.00    -0.036 C 
HETATM   12  C   UNL     1       6.978  11.277  24.002  0.00  0.00     0.093 C 
HETATM   13  C   UNL     1       6.504  12.235  21.703  0.00  0.00     0.015 C 
HETATM   14  C   UNL     1       6.381   9.772  22.082  0.00  0.00     0.015 C 
HETATM   15  C   UNL     1       6.697  12.571  24.748  0.00  0.00     0.162 C 
HETATM   16  O   UNL     1       7.588  13.172  25.346  0.00  0.00    -0.292 OA
HETATM   17  C   UNL     1       4.719  14.116  25.405  0.00  0.00    -0.030 A 
HETATM   18  C   UNL     1       3.378  14.060  25.104  0.00  0.00     0.105 A 
HETATM   19  C   UNL     1       5.397  15.151  26.230  0.00  0.00     0.050 C 
ENDBRANCH   1   7
BRANCH   6  20
HETATM   20  N   UNL     1      -0.972  10.346  24.818  0.00  0.00    -0.384 N 
HETATM   21  H   UNL     1      -1.646   9.776  24.307  0.00  0.00     0.160 HD
BRANCH  20  22
HETATM   22  C   UNL     1      -0.754  10.082  26.234  0.00  0.00     0.082 C 
HETATM   23  C   UNL     1      -0.571   8.581  26.497  0.00  0.00     0.027 C 
HETATM   24  C   UNL     1      -0.449   8.300  27.993  0.00  0.00     0.034 C 
HETATM   25  C   UNL     1      -1.667   8.822  28.750  0.00  0.00     0.118 C 
HETATM   26  C   UNL     1      -1.871  10.316  28.504  0.00  0.00     0.034 C 
HETATM   27  C   UNL     1      -1.960  10.631  27.015  0.00  0.00     0.027 C 
BRANCH  25  28
HETATM   28  O   UNL     1      -1.515   8.580  30.142  0.00  0.00    -0.396 OA
HETATM   29  H   UNL     1      -0.709   9.028  30.449  0.00  0.00     0.210 HD
ENDBRANCH  25  28
ENDBRANCH  20  22
ENDBRANCH   6  20
BRANCH   4  30
HETATM   30  C   UNL     1      -2.355  11.948  22.713  0.00  0.00     0.251 C 
HETATM   31  O   UNL     1      -3.137  11.273  23.373  0.00  0.00    -0.268 OA
HETATM   32  N   UNL     1      -2.762  12.558  21.557  0.00  0.00    -0.366 N 
HETATM   33  H   UNL     1      -2.072  12.919  20.910  0.00  0.00     0.159 HD
HETATM   34  H   UNL     1      -3.691  12.351  21.222  0.00  0.00     0.159 HD
ENDBRANCH   4  30
TORSDOF 5
ENDMDL
MODEL 5
REMARK VINA RESULT:    -8.735      2.695      8.797
REMARK INTER + INTRA:         -11.930
REMARK INTER:                 -10.619
REMARK INTRA:                  -1.310
REMARK UNBOUND:                -0.897
REMARK  5 active torsions:
REMARK  status: ('A' for Active; 'I' for Inactive)
REMARK    1  A    between atoms: N_10  and  C_14 
REMARK    2  A    between atoms: C_17  and  C_18 
REMARK       I    between atoms: C_18  and  N_20 
REMARK    3  A    between atoms: C_22  and  N_23 
REMARK    4  A    between atoms: N_23  and  C_24 
REMARK    5  A    between atoms: C_27  and  O_28 
ROOT
HETATM    1  C   UNL     1       7.667  14.575  22.159  0.00  0.00     0.041 A 
HETATM    2  C   UNL     1       7.878  14.201  20.835  0.00  0.00     0.031 A 
HETATM    3  C   UNL     1       9.180  14.123  20.319  0.00  0.00     0.022 A 
HETATM    4  C   UNL     1      10.297  14.441  21.108  0.00  0.00     0.058 A 
HETATM    5  C   UNL     1       8.796  14.964  22.908  0.00  0.00     0.060 A 
HETATM    6  C   UNL     1      10.115  14.904  22.423  0.00  0.00     0.046 A 
ENDROOT
BRANCH   1   7
HETATM    7  N   UNL     1       6.374  14.563  22.803  0.00  0.00    -0.324 N 
HETATM    8  C   UNL     1       5.452  13.527  22.958  0.00  0.00     0.031 A 
HETATM    9  C   UNL     1       5.601  12.096  22.542  0.00  0.00     0.067 C 
HETATM   10  C   UNL     1       4.328  14.018  23.617  0.00  0.00     0.040 A 
HETATM   11  C   UNL     1       4.576  11.174  23.263  0.00  0.00    -0.036 C 
HETATM   12  C   UNL     1       3.165  11.808  23.253  0.00  0.00     0.093 C 
HETATM   13  C   UNL     1       5.029  10.905  24.716  0.00  0.00     0.015 C 
HETATM   14  C   UNL     1       4.525   9.826  22.524  0.00  0.00     0.015 C 
HETATM   15  C   UNL     1       3.156  13.191  23.882  0.00  0.00     0.162 C 
HETATM   16  O   UNL     1       2.190  13.594  24.527  0.00  0.00    -0.292 OA
HETATM   17  C   UNL     1       4.593  15.348  24.000  0.00  0.00    -0.030 A 
HETATM   18  C   UNL     1       5.831  15.649  23.481  0.00  0.00     0.105 A 
HETATM   19  C   UNL     1       3.732  16.247  24.813  0.00  0.00     0.050 C 
ENDBRANCH   1   7
BRANCH   6  20
HETATM   20  N   UNL     1      11.178  15.220  23.261  0.00  0.00    -0.384 N 
HETATM   21  H   UNL     1      11.658  16.101  23.081  0.00  0.00     0.160 HD
BRANCH  20  22
HETATM   22  C   UNL     1      11.617  14.391  24.375  0.00  0.00     0.082 C 
HETATM   23  C   UNL     1      11.453  12.899  24.055  0.00  0.00     0.027 C 
HETATM   24  C   UNL     1      11.814  12.039  25.264  0.00  0.00     0.034 C 
HETATM   25  C   UNL     1      10.964  12.414  26.476  0.00  0.00     0.118 C 
HETATM   26  C   UNL     1      11.109  13.895  26.815  0.00  0.00     0.034 C 
HETATM   27  C   UNL     1      10.790  14.778  25.614  0.00  0.00     0.027 C 
BRANCH  25  28
HETATM   28  O   UNL     1      11.340  11.625  27.596  0.00  0.00    -0.396 OA
HETATM   29  H   UNL     1      11.408  10.697  27.314  0.00  0.00     0.210 HD
ENDBRANCH  25  28
ENDBRANCH  20  22
ENDBRANCH   6  20
BRANCH   4  30
HETATM   30  C   UNL     1      11.634  14.212  20.488  0.00  0.00     0.251 C 
HETATM   31  O   UNL     1      12.371  15.138  20.173  0.00  0.00    -0.268 OA
HETATM   32  N   UNL     1      11.985  12.917  20.218  0.00  0.00    -0.366 N 
HETATM   33  H   UNL     1      11.288  12.185  20.274  0.00  0.00     0.159 HD
HETATM   34  H   UNL     1      12.817  12.764  19.666  0.00  0.00     0.159 HD
ENDBRANCH   4  30
TORSDOF 5
ENDMDL
MODEL 6
REMARK VINA RESULT:    -8.668      3.189      5.528
REMARK INTER + INTRA:         -11.845
REMARK INTER:                 -10.479
REMARK INTRA:                  -1.366
REMARK UNBOUND:                -0.897
REMARK  5 active torsions:
REMARK  status: ('A' for Active; 'I' for Inactive)
REMARK    1  A    between atoms: N_10  and  C_14 
REMARK    2  A    between atoms: C_17  and  C_18 
REMARK       I    between atoms: C_18  and  N_20 
REMARK    3  A    between atoms: C_22  and  N_23 
REMARK    4  A    between atoms: N_23  and  C_24 
REMARK    5  A    between atoms: C_27  and  O_28 
ROOT
HETATM    1  C   UNL     1       1.726  12.638  23.536  0.00  0.00     0.041 A 
HETATM    2  C   UNL     1       0.708  13.187  22.762  0.00  0.00     0.031 A 
HETATM    3  C   UNL     1      -0.633  12.873  23.028  0.00  0.00     0.022 A 
HETATM    4  C   UNL     1      -0.983  11.984  24.057  0.00  0.00     0.058 A 
HETATM    5  C   UNL     1       1.356  11.690  24.512  0.00  0.00     0.060 A 
HETATM    6  C   UNL     1       0.023  11.346  24.803  0.00  0.00     0.046 A 
ENDROOT
BRANCH   1   7
HETATM    7  N   UNL     1       3.118  13.001  23.411  0.00  0.00    -0.324 N 
HETATM    8  C   UNL     1       4.239  12.209  23.157  0.00  0.00     0.031 A 
HETATM    9  C   UNL     1       4.278  10.739  22.872  0.00  0.00     0.067 C 
HETATM   10  C   UNL     1       5.374  13.015  23.169  0.00  0.00     0.040 A 
HETATM   11  C   UNL     1       5.624  10.311  22.218  0.00  0.00    -0.036 C 
HETATM   12  C   UNL     1       6.821  10.959  22.952  0.00  0.00     0.093 C 
HETATM   13  C   UNL     1       5.639  10.704  20.724  0.00  0.00     0.015 C 
HETATM   14  C   UNL     1       5.749   8.781  22.309  0.00  0.00     0.015 C 
HETATM   15  C   UNL     1       6.717  12.474  22.989  0.00  0.00     0.162 C 
HETATM   16  O   UNL     1       7.717  13.186  22.925  0.00  0.00    -0.292 OA
HETATM   17  C   UNL     1       4.956  14.354  23.302  0.00  0.00    -0.030 A 
HETATM   18  C   UNL     1       3.590  14.308  23.460  0.00  0.00     0.105 A 
HETATM   19  C   UNL     1       5.801  15.577  23.265  0.00  0.00     0.050 C 
ENDBRANCH   1   7
BRANCH   6  20
HETATM   20  N   UNL     1      -0.257  10.470  25.844  0.00  0.00    -0.384 N 
HETATM   21  H   UNL     1      -0.847  10.824  26.596  0.00  0.00     0.160 HD
BRANCH  20  22
HETATM   22  C   UNL     1       0.214   9.092  25.904  0.00  0.00     0.082 C 
HETATM   23  C   UNL     1      -0.240   8.297  24.673  0.00  0.00     0.027 C 
HETATM   24  C   UNL     1       0.165   6.829  24.792  0.00  0.00     0.034 C 
HETATM   25  C   UNL     1      -0.405   6.205  26.063  0.00  0.00     0.118 C 
HETATM   26  C   UNL     1       0.032   6.980  27.304  0.00  0.00     0.034 C 
HETATM   27  C   UNL     1      -0.327   8.457  27.196  0.00  0.00     0.027 C 
BRANCH  25  28
HETATM   28  O   UNL     1       0.012   4.851  26.170  0.00  0.00    -0.396 OA
HETATM   29  H   UNL     1       0.194   4.511  25.277  0.00  0.00     0.210 HD
ENDBRANCH  25  28
ENDBRANCH  20  22
ENDBRANCH   6  20
BRANCH   4  30
HETATM   30  C   UNL     1      -2.442  11.815  24.319  0.00  0.00     0.251 C 
HETATM   31  O   UNL     1      -2.891  11.726  25.455  0.00  0.00    -0.268 OA
HETATM   32  N   UNL     1      -3.264  11.693  23.231  0.00  0.00    -0.366 N 
HETATM   33  H   UNL     1      -2.864  11.545  22.314  0.00  0.00     0.159 HD
HETATM   34  H   UNL     1      -4.224  11.431  23.399  0.00  0.00     0.159 HD
ENDBRANCH   4  30
TORSDOF 5
ENDMDL
MODEL 7
REMARK VINA RESULT:    -8.592      2.706      4.559
REMARK INTER + INTRA:         -11.749
REMARK INTER:                 -10.852
REMARK INTRA:                  -0.897
REMARK UNBOUND:                -0.897
REMARK  5 active torsions:
REMARK  status: ('A' for Active; 'I' for Inactive)
REMARK    1  A    between atoms: N_10  and  C_14 
REMARK    2  A    between atoms: C_17  and  C_18 
REMARK       I    between atoms: C_18  and  N_20 
REMARK    3  A    between atoms: C_22  and  N_23 
REMARK    4  A    between atoms: N_23  and  C_24 
REMARK    5  A    between atoms: C_27  and  O_28 
ROOT
HETATM    1  C   UNL     1       4.319  10.609  23.762  0.00  0.00     0.041 A 
HETATM    2  C   UNL     1       4.677   9.265  23.830  0.00  0.00     0.031 A 
HETATM    3  C   UNL     1       3.742   8.302  24.236  0.00  0.00     0.022 A 
HETATM    4  C   UNL     1       2.437   8.663  24.606  0.00  0.00     0.058 A 
HETATM    5  C   UNL     1       3.029  10.956  24.212  0.00  0.00     0.060 A 
HETATM    6  C   UNL     1       2.068  10.020  24.631  0.00  0.00     0.046 A 
ENDROOT
BRANCH   1   7
HETATM    7  N   UNL     1       5.179  11.645  23.240  0.00  0.00    -0.324 N 
HETATM    8  C   UNL     1       5.181  13.021  23.477  0.00  0.00     0.031 A 
HETATM    9  C   UNL     1       4.307  13.792  24.418  0.00  0.00     0.067 C 
HETATM   10  C   UNL     1       6.181  13.610  22.708  0.00  0.00     0.040 A 
HETATM   11  C   UNL     1       4.890  15.201  24.728  0.00  0.00    -0.036 C 
HETATM   12  C   UNL     1       5.377  15.890  23.431  0.00  0.00     0.093 C 
HETATM   13  C   UNL     1       6.052  15.087  25.739  0.00  0.00     0.015 C 
HETATM   14  C   UNL     1       3.785  16.059  25.367  0.00  0.00     0.015 C 
HETATM   15  C   UNL     1       6.404  15.052  22.690  0.00  0.00     0.162 C 
HETATM   16  O   UNL     1       7.330  15.573  22.072  0.00  0.00    -0.292 OA
HETATM   17  C   UNL     1       6.907  12.581  22.075  0.00  0.00    -0.030 A 
HETATM   18  C   UNL     1       6.266  11.410  22.407  0.00  0.00     0.105 A 
HETATM   19  C   UNL     1       8.125  12.716  21.233  0.00  0.00     0.050 C 
ENDBRANCH   1   7
BRANCH   6  20
HETATM   20  N   UNL     1       0.789  10.442  24.972  0.00  0.00    -0.384 N 
HETATM   21  H   UNL     1       0.568  10.482  25.966  0.00  0.00     0.160 HD
BRANCH  20  22
HETATM   22  C   UNL     1      -0.224  10.849  24.007  0.00  0.00     0.082 C 
HETATM   23  C   UNL     1       0.021  12.282  23.517  0.00  0.00     0.027 C 
HETATM   24  C   UNL     1      -1.101  12.741  22.589  0.00  0.00     0.034 C 
HETATM   25  C   UNL     1      -2.458  12.645  23.280  0.00  0.00     0.118 C 
HETATM   26  C   UNL     1      -2.726  11.226  23.778  0.00  0.00     0.034 C 
HETATM   27  C   UNL     1      -1.602  10.729  24.679  0.00  0.00     0.027 C 
BRANCH  25  28
HETATM   28  O   UNL     1      -3.489  13.044  22.387  0.00  0.00    -0.396 OA
HETATM   29  H   UNL     1      -3.221  12.814  21.481  0.00  0.00     0.210 HD
ENDBRANCH  25  28
ENDBRANCH  20  22
ENDBRANCH   6  20
BRANCH   4  30
HETATM   30  C   UNL     1       1.500   7.543  24.910  0.00  0.00     0.251 C 
HETATM   31  O   UNL     1       0.540   7.685  25.658  0.00  0.00    -0.268 OA
HETATM   32  N   UNL     1       1.791   6.320  24.370  0.00  0.00    -0.366 N 
HETATM   33  H   UNL     1       2.694   6.161  23.943  0.00  0.00     0.159 HD
HETATM   34  H   UNL     1       1.250   5.529  24.689  0.00  0.00     0.159 HD
ENDBRANCH   4  30
TORSDOF 5
ENDMDL
MODEL 8
REMARK VINA RESULT:    -8.483      2.771      4.289
REMARK INTER + INTRA:         -11.611
REMARK INTER:                 -10.220
REMARK INTRA:                  -1.391
REMARK UNBOUND:                -0.897
REMARK  5 active torsions:
REMARK  status: ('A' for Active; 'I' for Inactive)
REMARK    1  A    between atoms: N_10  and  C_14 
REMARK    2  A    between atoms: C_17  and  C_18 
REMARK       I    between atoms: C_18  and  N_20 
REMARK    3  A    between atoms: C_22  and  N_23 
REMARK    4  A    between atoms: N_23  and  C_24 
REMARK    5  A    between atoms: C_27  and  O_28 
ROOT
HETATM    1  C   UNL     1       6.316  14.569  22.965  0.00  0.00     0.041 A 
HETATM    2  C   UNL     1       5.478  15.546  23.496  0.00  0.00     0.031 A 
HETATM    3  C   UNL     1       4.130  15.259  23.757  0.00  0.00     0.022 A 
HETATM    4  C   UNL     1       3.585  13.996  23.470  0.00  0.00     0.058 A 
HETATM    5  C   UNL     1       5.729  13.336  22.615  0.00  0.00     0.060 A 
HETATM    6  C   UNL     1       4.382  13.014  22.857  0.00  0.00     0.046 A 
ENDROOT
BRANCH   1   7
HETATM    7  N   UNL     1       7.738  14.742  22.781  0.00  0.00    -0.324 N 
HETATM    8  C   UNL     1       8.813  14.182  23.472  0.00  0.00     0.031 A 
HETATM    9  C   UNL     1       8.768  13.171  24.576  0.00  0.00     0.067 C 
HETATM   10  C   UNL     1      10.000  14.689  22.949  0.00  0.00     0.040 A 
HETATM   11  C   UNL     1      10.145  12.477  24.782  0.00  0.00    -0.036 C 
HETATM   12  C   UNL     1      11.290  13.517  24.774  0.00  0.00     0.093 C 
HETATM   13  C   UNL     1      10.379  11.417  23.683  0.00  0.00     0.015 C 
HETATM   14  C   UNL     1      10.132  11.757  26.142  0.00  0.00     0.015 C 
HETATM   15  C   UNL     1      11.306  14.338  23.495  0.00  0.00     0.162 C 
HETATM   16  O   UNL     1      12.361  14.722  22.994  0.00  0.00    -0.292 OA
HETATM   17  C   UNL     1       9.679  15.479  21.827  0.00  0.00    -0.030 A 
HETATM   18  C   UNL     1       8.305  15.501  21.763  0.00  0.00     0.105 A 
HETATM   19  C   UNL     1      10.619  16.145  20.887  0.00  0.00     0.050 C 
ENDBRANCH   1   7
BRANCH   6  20
HETATM   20  N   UNL     1       3.909  11.741  22.563  0.00  0.00    -0.384 N 
HETATM   21  H   UNL     1       2.936  11.547  22.800  0.00  0.00     0.160 HD
BRANCH  20  22
HETATM   22  C   UNL     1       4.701  10.700  21.922  0.00  0.00     0.082 C 
HETATM   23  C   UNL     1       4.449  10.662  20.410  0.00  0.00     0.027 C 
HETATM   24  C   UNL     1       5.200   9.503  19.759  0.00  0.00     0.034 C 
HETATM   25  C   UNL     1       4.805   8.171  20.393  0.00  0.00     0.118 C 
HETATM   26  C   UNL     1       5.047   8.183  21.900  0.00  0.00     0.034 C 
HETATM   27  C   UNL     1       4.337   9.354  22.571  0.00  0.00     0.027 C 
BRANCH  25  28
HETATM   28  O   UNL     1       5.540   7.112  19.796  0.00  0.00    -0.396 OA
HETATM   29  H   UNL     1       4.912   6.467  19.428  0.00  0.00     0.210 HD
ENDBRANCH  25  28
ENDBRANCH  20  22
ENDBRANCH   6  20
BRANCH   4  30
HETATM   30  C   UNL     1       2.173  13.772  23.896  0.00  0.00     0.251 C 
HETATM   31  O   UNL     1       1.308  13.412  23.107  0.00  0.00    -0.268 OA
HETATM   32  N   UNL     1       1.860  14.051  25.199  0.00  0.00    -0.366 N 
HETATM   33  H   UNL     1       2.520  14.554  25.778  0.00  0.00     0.159 HD
HETATM   34  H   UNL     1       0.884  14.045  25.455  0.00  0.00     0.159 HD
ENDBRANCH   4  30
TORSDOF 5
ENDMDL
MODEL 9
REMARK VINA RESULT:    -8.443      2.619      4.496
REMARK INTER + INTRA:         -11.562
REMARK INTER:                 -10.314
REMARK INTRA:                  -1.248
REMARK UNBOUND:                -0.897
REMARK  5 active torsions:
REMARK  status: ('A' for Active; 'I' for Inactive)
REMARK    1  A    between atoms: N_10  and  C_14 
REMARK    2  A    between atoms: C_17  and  C_18 
REMARK       I    between atoms: C_18  and  N_20 
REMARK    3  A    between atoms: C_22  and  N_23 
REMARK    4  A    between atoms: N_23  and  C_24 
REMARK    5  A    between atoms: C_27  and  O_28 
ROOT
HETATM    1  C   UNL     1       6.443  14.460  22.757  0.00  0.00     0.041 A 
HETATM    2  C   UNL     1       5.809  15.544  23.358  0.00  0.00     0.031 A 
HETATM    3  C   UNL     1       4.470  15.447  23.765  0.00  0.00     0.022 A 
HETATM    4  C   UNL     1       3.729  14.273  23.557  0.00  0.00     0.058 A 
HETATM    5  C   UNL     1       5.657  13.320  22.490  0.00  0.00     0.060 A 
HETATM    6  C   UNL     1       4.311  13.189  22.878  0.00  0.00     0.046 A 
ENDROOT
BRANCH   1   7
HETATM    7  N   UNL     1       7.847  14.433  22.421  0.00  0.00    -0.324 N 
HETATM    8  C   UNL     1       8.829  13.487  22.718  0.00  0.00     0.031 A 
HETATM    9  C   UNL     1       8.659  12.180  23.429  0.00  0.00     0.067 C 
HETATM   10  C   UNL     1      10.049  13.927  22.210  0.00  0.00     0.040 A 
HETATM   11  C   UNL     1       9.864  11.226  23.184  0.00  0.00    -0.036 C 
HETATM   12  C   UNL     1      11.204  11.985  23.335  0.00  0.00     0.093 C 
HETATM   13  C   UNL     1       9.766  10.592  21.779  0.00  0.00     0.015 C 
HETATM   14  C   UNL     1       9.811  10.093  24.223  0.00  0.00     0.015 C 
HETATM   15  C   UNL     1      11.289  13.184  22.404  0.00  0.00     0.162 C 
HETATM   16  O   UNL     1      12.355  13.526  21.897  0.00  0.00    -0.292 OA
HETATM   17  C   UNL     1       9.813  15.102  21.468  0.00  0.00    -0.030 A 
HETATM   18  C   UNL     1       8.477  15.386  21.628  0.00  0.00     0.105 A 
HETATM   19  C   UNL     1      10.791  15.876  20.660  0.00  0.00     0.050 C 
ENDBRANCH   1   7
BRANCH   6  20
HETATM   20  N   UNL     1       3.638  11.994  22.655  0.00  0.00    -0.384 N 
HETATM   21  H   UNL     1       2.647  12.062  22.425  0.00  0.00     0.160 HD
BRANCH  20  22
HETATM   22  C   UNL     1       4.264  10.680  22.704  0.00  0.00     0.082 C 
HETATM   23  C   UNL     1       5.349  10.622  23.787  0.00  0.00     0.027 C 
HETATM   24  C   UNL     1       6.074   9.278  23.763  0.00  0.00     0.034 C 
HETATM   25  C   UNL     1       6.684   9.010  22.390  0.00  0.00     0.118 C 
HETATM   26  C   UNL     1       5.623   9.062  21.293  0.00  0.00     0.034 C 
HETATM   27  C   UNL     1       4.858  10.380  21.317  0.00  0.00     0.027 C 
BRANCH  25  28
HETATM   28  O   UNL     1       7.323   7.741  22.380  0.00  0.00    -0.396 OA
HETATM   29  H   UNL     1       8.023   7.750  21.705  0.00  0.00     0.210 HD
ENDBRANCH  25  28
ENDBRANCH  20  22
ENDBRANCH   6  20
BRANCH   4  30
HETATM   30  C   UNL     1       2.353  14.247  24.133  0.00  0.00     0.251 C 
HETATM   31  O   UNL     1       1.359  14.104  23.432  0.00  0.00    -0.268 OA
HETATM   32  N   UNL     1       2.234  14.459  25.480  0.00  0.00    -0.366 N 
HETATM   33  H   UNL     1       3.029  14.795  26.008  0.00  0.00     0.159 HD
HETATM   34  H   UNL     1       1.304  14.592  25.851  0.00  0.00     0.159 HD
ENDBRANCH   4  30
TORSDOF 5
ENDMDL
