REMARK  5 active torsions:
REMARK  status: ('A' for Active; 'I' for Inactive)
REMARK    1  A    between atoms: N_10  and  C_14 
REMARK    2  A    between atoms: C_17  and  C_18 
REMARK       I    between atoms: C_18  and  N_20 
REMARK    3  A    between atoms: C_22  and  N_23 
REMARK    4  A    between atoms: N_23  and  C_24 
REMARK    5  A    between atoms: C_27  and  O_28 
ROOT
HETATM    1  C   UNL     1       4.561  -7.315   1.660  0.00  0.00     0.041 A 
HETATM    2  C   UNL     1       4.667  -8.440   2.474  0.00  0.00     0.031 A 
HETATM    3  C   UNL     1       5.687  -9.378   2.258  0.00  0.00     0.022 A 
HETATM    4  C   UNL     1       6.608  -9.225   1.209  0.00  0.00     0.058 A 
HETATM    5  C   UNL     1       5.448  -7.223   0.568  0.00  0.00     0.060 A 
HETATM    6  C   UNL     1       6.479  -8.146   0.317  0.00  0.00     0.046 A 
ENDROOT
BRANCH   1   7
HETATM    7  N   UNL     1       3.621  -6.243   1.887  0.00  0.00    -0.324 N 
HETATM    8  C   UNL     1       2.728  -6.032   2.939  0.00  0.00     0.031 A 
HETATM    9  C   UNL     1       2.559  -6.856   4.178  0.00  0.00     0.067 C 
HETATM   10  C   UNL     1       2.000  -4.872   2.688  0.00  0.00     0.040 A 
HETATM   11  C   UNL     1       1.801  -6.078   5.292  0.00  0.00    -0.036 C 
HETATM   12  C   UNL     1       0.567  -5.349   4.710  0.00  0.00     0.093 C 
HETATM   13  C   UNL     1       2.747  -5.064   5.973  0.00  0.00     0.015 C 
HETATM   14  C   UNL     1       1.332  -7.082   6.359  0.00  0.00     0.015 C 
HETATM   15  C   UNL     1       0.942  -4.407   3.578  0.00  0.00     0.162 C 
HETATM   16  O   UNL     1       0.345  -3.347   3.403  0.00  0.00    -0.292 OA
HETATM   17  C   UNL     1       2.527  -4.269   1.528  0.00  0.00    -0.030 A 
HETATM   18  C   UNL     1       3.494  -5.130   1.063  0.00  0.00     0.105 A 
HETATM   19  C   UNL     1       2.141  -2.965   0.928  0.00  0.00     0.050 C 
ENDBRANCH   1   7
BRANCH   6  20
HETATM   20  N   UNL     1       7.366  -7.929  -0.730  0.00  0.00    -0.384 N 
HETATM   21  H   UNL     1       7.729  -8.756  -1.203  0.00  0.00     0.160 HD
BRANCH  20  22
HETATM   22  C   UNL     1       7.775  -6.611  -1.197  0.00  0.00     0.082 C 
HETATM   23  C   UNL     1       7.009  -6.209  -2.464  0.00  0.00     0.027 C 
HETATM   24  C   UNL     1       7.516  -4.876  -3.009  0.00  0.00     0.034 C 
HETATM   25  C   UNL     1       9.014  -4.936  -3.296  0.00  0.00     0.118 C 
HETATM   26  C   UNL     1       9.800  -5.335  -2.049  0.00  0.00     0.034 C 
HETATM   27  C   UNL     1       9.290  -6.646  -1.462  0.00  0.00     0.027 C 
BRANCH  25  28
HETATM   28  O   UNL     1       9.470  -3.676  -3.769  0.00  0.00    -0.396 OA
HETATM   29  H   UNL     1       9.243  -2.997  -3.111  0.00  0.00     0.210 HD
ENDBRANCH  25  28
ENDBRANCH  20  22
ENDBRANCH   6  20
BRANCH   4  30
HETATM   30  C   UNL     1       7.715 -10.223   1.148  0.00  0.00     0.251 C 
HETATM   31  O   UNL     1       7.602 -11.347   1.622  0.00  0.00    -0.268 OA
HETATM   32  N   UNL     1       8.899  -9.812   0.598  0.00  0.00    -0.366 N 
HETATM   33  H   UNL     1       9.054  -8.829   0.416  0.00  0.00     0.159 HD
HETATM   34  H   UNL     1       9.694 -10.428   0.688  0.00  0.00     0.159 HD
ENDBRANCH   4  30
TORSDOF 5
