MODEL 1
REMARK VINA RESULT:    -5.767      0.000      0.000
REMARK INTER + INTRA:          -8.520
REMARK INTER:                  -7.557
REMARK INTRA:                  -0.963
REMARK UNBOUND:                -1.068
REMARK  5 active torsions:
REMARK  status: ('A' for Active; 'I' for Inactive)
REMARK    1  A    between atoms: N8_1  and  C24_2 
REMARK    2  A    between atoms: N8_1  and  C7_8 
REMARK    3  A    between atoms: C2_13  and  N1_14 
REMARK    4  A    between atoms: N1_14  and  C17_15 
REMARK    5  A    between atoms: C14_16  and  C13_19 
ROOT
ATOM      1  C17 FTA A   1       9.474  10.720   9.827  1.00  0.00     0.142 C 
ATOM      2  C14 FTA A   1      10.787  11.025   9.794  1.00  0.00     0.158 C 
ATOM      3  C18 FTA A   1      11.738  10.083   9.245  1.00  0.00     0.069 C 
ATOM      4  N21 FTA A   1      12.396   9.206   8.829  1.00  0.00    -0.197 NA
ENDROOT
BRANCH   2   5
ATOM      5  C13 FTA A   1      11.243  12.336  10.309  1.00  0.00     0.197 A 
ATOM      6  N15 FTA A   1      10.448  13.462  10.510  1.00  0.00    -0.093 NA
ATOM      7  N19 FTA A   1      11.276  14.484  10.956  1.00  0.00    -0.231 N 
ATOM      8  N20 FTA A   1      12.579  14.013  11.034  1.00  0.00    -0.017 NA
ATOM      9  H15 FTA A   1      10.972  15.440  11.192  1.00  0.00     0.200 HD
ATOM     10  N16 FTA A   1      12.559  12.678  10.643  1.00  0.00    -0.090 NA
ENDBRANCH   2   5
BRANCH   1  11
ATOM     11  N1  FTA A   1       8.812  10.819  10.995  1.00  0.00    -0.389 N 
ATOM     12  H11 FTA A   1       9.196  10.309  11.804  1.00  0.00     0.159 HD
BRANCH  11  13
ATOM     13  C2  FTA A   1       7.624  11.573  11.198  1.00  0.00     0.028 A 
ATOM     14  C4  FTA A   1       7.481  12.458  12.263  1.00  0.00     0.031 A 
ATOM     15  C6  FTA A   1       6.214  12.992  12.538  1.00  0.00     0.031 A 
ATOM     16  C7  FTA A   1       5.092  12.663  11.782  1.00  0.00     0.032 A 
ATOM     17  C5  FTA A   1       5.256  11.801  10.712  1.00  0.00     0.031 A 
ATOM     18  C3  FTA A   1       6.500  11.251  10.431  1.00  0.00     0.031 A 
BRANCH  16  19
ATOM     19  N8  FTA A   1       3.774  13.021  12.164  1.00  0.00    -0.356 N 
ATOM     20  H1  FTA A   1       3.144  12.260  12.457  1.00  0.00     0.166 HD
BRANCH  19  21
ATOM     21  C24 FTA A   1       3.249  14.348  12.177  1.00  0.00     0.032 A 
ATOM     22  C26 FTA A   1       2.090  14.658  12.849  1.00  0.00     0.029 A 
ATOM     23  C28 FTA A   1       1.543  15.916  12.681  1.00  0.00     0.002 A 
ATOM     24  C30 FTA A   1       2.135  16.884  11.888  1.00  0.00     0.000 A 
ATOM     25  C29 FTA A   1       3.310  16.600  11.244  1.00  0.00     0.002 A 
ATOM     26  C27 FTA A   1       3.865  15.326  11.409  1.00  0.00     0.029 A 
ENDBRANCH  19  21
ENDBRANCH  16  19
ENDBRANCH  11  13
ENDBRANCH   1  11
TORSDOF 5
ENDMDL
MODEL 2
REMARK VINA RESULT:    -5.636      5.878      8.968
REMARK INTER + INTRA:          -8.351
REMARK INTER:                  -7.247
REMARK INTRA:                  -1.104
REMARK UNBOUND:                -1.068
REMARK  5 active torsions:
REMARK  status: ('A' for Active; 'I' for Inactive)
REMARK    1  A    between atoms: N8_1  and  C24_2 
REMARK    2  A    between atoms: N8_1  and  C7_8 
REMARK    3  A    between atoms: C2_13  and  N1_14 
REMARK    4  A    between atoms: N1_14  and  C17_15 
REMARK    5  A    between atoms: C14_16  and  C13_19 
ROOT
ATOM      1  C17 FTA A   1       6.020  16.355  17.754  1.00  0.00     0.142 C 
ATOM      2  C14 FTA A   1       5.006  16.532  18.624  1.00  0.00     0.158 C 
ATOM      3  C18 FTA A   1       4.008  15.499  18.799  1.00  0.00     0.069 C 
ATOM      4  N21 FTA A   1       3.247  14.607  18.793  1.00  0.00    -0.197 NA
ENDROOT
BRANCH   2   5
ATOM      5  C13 FTA A   1       4.932  17.785  19.410  1.00  0.00     0.197 A 
ATOM      6  N15 FTA A   1       4.304  18.966  19.019  1.00  0.00    -0.093 NA
ATOM      7  N19 FTA A   1       4.509  19.902  20.024  1.00  0.00    -0.231 N 
ATOM      8  N20 FTA A   1       5.259  19.324  21.037  1.00  0.00    -0.017 NA
ATOM      9  H15 FTA A   1       4.160  20.871  20.018  1.00  0.00     0.200 HD
ATOM     10  N16 FTA A   1       5.513  18.008  20.664  1.00  0.00    -0.090 NA
ENDBRANCH   2   5
BRANCH   1  11
ATOM     11  N1  FTA A   1       6.248  17.298  16.819  1.00  0.00    -0.389 N 
ATOM     12  H11 FTA A   1       6.779  18.133  17.105  1.00  0.00     0.159 HD
BRANCH  11  13
ATOM     13  C2  FTA A   1       5.812  17.227  15.468  1.00  0.00     0.028 A 
ATOM     14  C4  FTA A   1       4.465  17.291  15.120  1.00  0.00     0.031 A 
ATOM     15  C6  FTA A   1       4.087  16.986  13.805  1.00  0.00     0.031 A 
ATOM     16  C7  FTA A   1       5.016  16.618  12.835  1.00  0.00     0.032 A 
ATOM     17  C5  FTA A   1       6.352  16.584  13.190  1.00  0.00     0.031 A 
ATOM     18  C3  FTA A   1       6.746  16.870  14.491  1.00  0.00     0.031 A 
BRANCH  16  19
ATOM     19  N8  FTA A   1       4.641  16.106  11.566  1.00  0.00    -0.356 N 
ATOM     20  H1  FTA A   1       4.244  16.771  10.887  1.00  0.00     0.166 HD
BRANCH  19  21
ATOM     21  C24 FTA A   1       4.769  14.745  11.154  1.00  0.00     0.032 A 
ATOM     22  C26 FTA A   1       4.287  13.711  11.921  1.00  0.00     0.029 A 
ATOM     23  C28 FTA A   1       4.594  12.415  11.553  1.00  0.00     0.002 A 
ATOM     24  C30 FTA A   1       5.341  12.119  10.426  1.00  0.00     0.000 A 
ATOM     25  C29 FTA A   1       5.794  13.139   9.632  1.00  0.00     0.002 A 
ATOM     26  C27 FTA A   1       5.488  14.453  10.004  1.00  0.00     0.029 A 
ENDBRANCH  19  21
ENDBRANCH  16  19
ENDBRANCH  11  13
ENDBRANCH   1  11
TORSDOF 5
ENDMDL
MODEL 3
REMARK VINA RESULT:    -5.627      3.999      8.616
REMARK INTER + INTRA:          -8.339
REMARK INTER:                  -7.257
REMARK INTRA:                  -1.082
REMARK UNBOUND:                -1.068
REMARK  5 active torsions:
REMARK  status: ('A' for Active; 'I' for Inactive)
REMARK    1  A    between atoms: N8_1  and  C24_2 
REMARK    2  A    between atoms: N8_1  and  C7_8 
REMARK    3  A    between atoms: C2_13  and  N1_14 
REMARK    4  A    between atoms: N1_14  and  C17_15 
REMARK    5  A    between atoms: C14_16  and  C13_19 
ROOT
ATOM      1  C17 FTA A   1       3.248  17.364  14.520  1.00  0.00     0.142 C 
ATOM      2  C14 FTA A   1       3.435  17.794  15.783  1.00  0.00     0.158 C 
ATOM      3  C18 FTA A   1       2.705  18.941  16.277  1.00  0.00     0.069 C 
ATOM      4  N21 FTA A   1       2.092  19.911  16.520  1.00  0.00    -0.197 NA
ENDROOT
BRANCH   2   5
ATOM      5  C13 FTA A   1       4.383  17.073  16.665  1.00  0.00     0.197 A 
ATOM      6  N15 FTA A   1       4.068  16.432  17.861  1.00  0.00    -0.093 NA
ATOM      7  N19 FTA A   1       5.249  15.928  18.388  1.00  0.00    -0.231 N 
ATOM      8  N20 FTA A   1       6.299  16.247  17.539  1.00  0.00    -0.017 NA
ATOM      9  H15 FTA A   1       5.333  15.401  19.269  1.00  0.00     0.200 HD
ATOM     10  N16 FTA A   1       5.762  16.948  16.465  1.00  0.00    -0.090 NA
ENDBRANCH   2   5
BRANCH   1  11
ATOM     11  N1  FTA A   1       4.320  17.201  13.721  1.00  0.00    -0.389 N 
ATOM     12  H11 FTA A   1       4.965  17.999  13.623  1.00  0.00     0.159 HD
BRANCH  11  13
ATOM     13  C2  FTA A   1       4.629  16.014  13.003  1.00  0.00     0.028 A 
ATOM     14  C4  FTA A   1       3.642  15.209  12.441  1.00  0.00     0.031 A 
ATOM     15  C6  FTA A   1       3.993  13.944  11.951  1.00  0.00     0.031 A 
ATOM     16  C7  FTA A   1       5.298  13.463  12.011  1.00  0.00     0.032 A 
ATOM     17  C5  FTA A   1       6.273  14.285  12.549  1.00  0.00     0.031 A 
ATOM     18  C3  FTA A   1       5.942  15.538  13.052  1.00  0.00     0.031 A 
BRANCH  16  19
ATOM     19  N8  FTA A   1       5.637  12.118  11.717  1.00  0.00    -0.356 N 
ATOM     20  H1  FTA A   1       4.987  11.386  12.038  1.00  0.00     0.166 HD
BRANCH  19  21
ATOM     21  C24 FTA A   1       6.805  11.694  11.014  1.00  0.00     0.032 A 
ATOM     22  C26 FTA A   1       7.736  10.865  11.595  1.00  0.00     0.029 A 
ATOM     23  C28 FTA A   1       8.923  10.632  10.928  1.00  0.00     0.002 A 
ATOM     24  C30 FTA A   1       9.196  11.177   9.685  1.00  0.00     0.000 A 
ATOM     25  C29 FTA A   1       8.262  11.973   9.078  1.00  0.00     0.002 A 
ATOM     26  C27 FTA A   1       7.059  12.214   9.753  1.00  0.00     0.029 A 
ENDBRANCH  19  21
ENDBRANCH  16  19
ENDBRANCH  11  13
ENDBRANCH   1  11
TORSDOF 5
ENDMDL
MODEL 4
REMARK VINA RESULT:    -5.625      6.717      8.921
REMARK INTER + INTRA:          -8.337
REMARK INTER:                  -7.269
REMARK INTRA:                  -1.068
REMARK UNBOUND:                -1.068
REMARK  5 active torsions:
REMARK  status: ('A' for Active; 'I' for Inactive)
REMARK    1  A    between atoms: N8_1  and  C24_2 
REMARK    2  A    between atoms: N8_1  and  C7_8 
REMARK    3  A    between atoms: C2_13  and  N1_14 
REMARK    4  A    between atoms: N1_14  and  C17_15 
REMARK    5  A    between atoms: C14_16  and  C13_19 
ROOT
ATOM      1  C17 FTA A   1       5.820  16.349  17.529  1.00  0.00     0.142 C 
ATOM      2  C14 FTA A   1       4.891  16.496  18.495  1.00  0.00     0.158 C 
ATOM      3  C18 FTA A   1       3.983  15.412  18.801  1.00  0.00     0.069 C 
ATOM      4  N21 FTA A   1       3.282  14.477  18.900  1.00  0.00    -0.197 NA
ENDROOT
BRANCH   2   5
ATOM      5  C13 FTA A   1       4.819  17.768  19.248  1.00  0.00     0.197 A 
ATOM      6  N15 FTA A   1       4.128  18.915  18.862  1.00  0.00    -0.093 NA
ATOM      7  N19 FTA A   1       4.359  19.887  19.826  1.00  0.00    -0.231 N 
ATOM      8  N20 FTA A   1       5.187  19.365  20.809  1.00  0.00    -0.017 NA
ATOM      9  H15 FTA A   1       3.977  20.844  19.814  1.00  0.00     0.200 HD
ATOM     10  N16 FTA A   1       5.465  18.048  20.458  1.00  0.00    -0.090 NA
ENDBRANCH   2   5
BRANCH   1  11
ATOM     11  N1  FTA A   1       5.892  17.270  16.549  1.00  0.00    -0.389 N 
ATOM     12  H11 FTA A   1       6.567  18.039  16.667  1.00  0.00     0.159 HD
BRANCH  11  13
ATOM     13  C2  FTA A   1       5.107  17.262  15.363  1.00  0.00     0.028 A 
ATOM     14  C4  FTA A   1       3.802  17.745  15.335  1.00  0.00     0.031 A 
ATOM     15  C6  FTA A   1       3.009  17.499  14.206  1.00  0.00     0.031 A 
ATOM     16  C7  FTA A   1       3.485  16.783  13.110  1.00  0.00     0.032 A 
ATOM     17  C5  FTA A   1       4.792  16.331  13.143  1.00  0.00     0.031 A 
ATOM     18  C3  FTA A   1       5.589  16.553  14.259  1.00  0.00     0.031 A 
BRANCH  16  19
ATOM     19  N8  FTA A   1       2.645  16.343  12.055  1.00  0.00    -0.356 N 
ATOM     20  H1  FTA A   1       2.956  16.537  11.092  1.00  0.00     0.166 HD
BRANCH  19  21
ATOM     21  C24 FTA A   1       1.405  15.654  12.217  1.00  0.00     0.032 A 
ATOM     22  C26 FTA A   1       0.306  15.960  11.451  1.00  0.00     0.029 A 
ATOM     23  C28 FTA A   1      -0.907  15.380  11.772  1.00  0.00     0.002 A 
ATOM     24  C30 FTA A   1      -1.048  14.482  12.816  1.00  0.00     0.000 A 
ATOM     25  C29 FTA A   1       0.048  14.141  13.564  1.00  0.00     0.002 A 
ATOM     26  C27 FTA A   1       1.277  14.728  13.243  1.00  0.00     0.029 A 
ENDBRANCH  19  21
ENDBRANCH  16  19
ENDBRANCH  11  13
ENDBRANCH   1  11
TORSDOF 5
ENDMDL
MODEL 5
REMARK VINA RESULT:    -5.614      3.139      9.149
REMARK INTER + INTRA:          -8.323
REMARK INTER:                  -7.337
REMARK INTRA:                  -0.986
REMARK UNBOUND:                -1.068
REMARK  5 active torsions:
REMARK  status: ('A' for Active; 'I' for Inactive)
REMARK    1  A    between atoms: N8_1  and  C24_2 
REMARK    2  A    between atoms: N8_1  and  C7_8 
REMARK    3  A    between atoms: C2_13  and  N1_14 
REMARK    4  A    between atoms: N1_14  and  C17_15 
REMARK    5  A    between atoms: C14_16  and  C13_19 
ROOT
ATOM      1  C17 FTA A   1       2.949  16.839  13.209  1.00  0.00     0.142 C 
ATOM      2  C14 FTA A   1       2.530  16.798  14.489  1.00  0.00     0.158 C 
ATOM      3  C18 FTA A   1       3.394  17.266  15.552  1.00  0.00     0.069 C 
ATOM      4  N21 FTA A   1       4.217  17.621  16.308  1.00  0.00    -0.197 NA
ENDROOT
BRANCH   2   5
ATOM      5  C13 FTA A   1       1.175  16.286  14.797  1.00  0.00     0.197 A 
ATOM      6  N15 FTA A   1       0.023  17.052  14.955  1.00  0.00    -0.093 NA
ATOM      7  N19 FTA A   1      -1.013  16.186  15.279  1.00  0.00    -0.231 N 
ATOM      8  N20 FTA A   1      -0.524  14.889  15.328  1.00  0.00    -0.017 NA
ATOM      9  H15 FTA A   1      -1.990  16.463  15.455  1.00  0.00     0.200 HD
ATOM     10  N16 FTA A   1       0.831  14.947  15.018  1.00  0.00    -0.090 NA
ENDBRANCH   2   5
BRANCH   1  11
ATOM     11  N1  FTA A   1       2.889  15.716  12.468  1.00  0.00    -0.389 N 
ATOM     12  H11 FTA A   1       1.981  15.470  12.048  1.00  0.00     0.159 HD
BRANCH  11  13
ATOM     13  C2  FTA A   1       3.985  14.844  12.220  1.00  0.00     0.028 A 
ATOM     14  C4  FTA A   1       3.807  13.490  11.947  1.00  0.00     0.031 A 
ATOM     15  C6  FTA A   1       4.925  12.646  11.941  1.00  0.00     0.031 A 
ATOM     16  C7  FTA A   1       6.209  13.116  12.202  1.00  0.00     0.032 A 
ATOM     17  C5  FTA A   1       6.372  14.468  12.446  1.00  0.00     0.031 A 
ATOM     18  C3  FTA A   1       5.275  15.320  12.470  1.00  0.00     0.031 A 
BRANCH  16  19
ATOM     19  N8  FTA A   1       7.317  12.255  12.408  1.00  0.00    -0.356 N 
ATOM     20  H1  FTA A   1       7.403  11.808  13.332  1.00  0.00     0.166 HD
BRANCH  19  21
ATOM     21  C24 FTA A   1       8.323  11.956  11.439  1.00  0.00     0.032 A 
ATOM     22  C26 FTA A   1       8.261  10.823  10.662  1.00  0.00     0.029 A 
ATOM     23  C28 FTA A   1       9.348  10.504   9.870  1.00  0.00     0.002 A 
ATOM     24  C30 FTA A   1      10.481  11.297   9.808  1.00  0.00     0.000 A 
ATOM     25  C29 FTA A   1      10.539  12.448  10.548  1.00  0.00     0.002 A 
ATOM     26  C27 FTA A   1       9.442  12.773  11.354  1.00  0.00     0.029 A 
ENDBRANCH  19  21
ENDBRANCH  16  19
ENDBRANCH  11  13
ENDBRANCH   1  11
TORSDOF 5
ENDMDL
MODEL 6
REMARK VINA RESULT:    -5.562      2.052      3.898
REMARK INTER + INTRA:          -8.256
REMARK INTER:                  -7.291
REMARK INTRA:                  -0.965
REMARK UNBOUND:                -1.068
REMARK  5 active torsions:
REMARK  status: ('A' for Active; 'I' for Inactive)
REMARK    1  A    between atoms: N8_1  and  C24_2 
REMARK    2  A    between atoms: N8_1  and  C7_8 
REMARK    3  A    between atoms: C2_13  and  N1_14 
REMARK    4  A    between atoms: N1_14  and  C17_15 
REMARK    5  A    between atoms: C14_16  and  C13_19 
ROOT
ATOM      1  C17 FTA A   1       8.102  14.433  10.968  1.00  0.00     0.142 C 
ATOM      2  C14 FTA A   1       8.993  13.422  10.917  1.00  0.00     0.158 C 
ATOM      3  C18 FTA A   1      10.377  13.689  10.588  1.00  0.00     0.069 C 
ATOM      4  N21 FTA A   1      11.443  14.043  10.255  1.00  0.00    -0.197 NA
ENDROOT
BRANCH   2   5
ATOM      5  C13 FTA A   1       8.546  12.042  11.215  1.00  0.00     0.197 A 
ATOM      6  N15 FTA A   1       8.038  11.126  10.297  1.00  0.00    -0.093 NA
ATOM      7  N19 FTA A   1       7.700   9.976  10.998  1.00  0.00    -0.231 N 
ATOM      8  N20 FTA A   1       7.987  10.161  12.342  1.00  0.00    -0.017 NA
ATOM      9  H15 FTA A   1       7.300   9.121  10.585  1.00  0.00     0.200 HD
ATOM     10  N16 FTA A   1       8.522  11.438  12.478  1.00  0.00    -0.090 NA
ENDBRANCH   2   5
BRANCH   1  11
ATOM     11  N1  FTA A   1       6.965  14.336  10.252  1.00  0.00    -0.389 N 
ATOM     12  H11 FTA A   1       7.051  14.112   9.250  1.00  0.00     0.159 HD
BRANCH  11  13
ATOM     13  C2  FTA A   1       5.655  14.518  10.774  1.00  0.00     0.028 A 
ATOM     14  C4  FTA A   1       5.073  15.778  10.890  1.00  0.00     0.031 A 
ATOM     15  C6  FTA A   1       3.884  15.913  11.620  1.00  0.00     0.031 A 
ATOM     16  C7  FTA A   1       3.266  14.827  12.235  1.00  0.00     0.032 A 
ATOM     17  C5  FTA A   1       3.844  13.578  12.089  1.00  0.00     0.031 A 
ATOM     18  C3  FTA A   1       5.029  13.426  11.381  1.00  0.00     0.031 A 
BRANCH  16  19
ATOM     19  N8  FTA A   1       2.188  14.969  13.145  1.00  0.00    -0.356 N 
ATOM     20  H1  FTA A   1       2.422  15.072  14.143  1.00  0.00     0.166 HD
BRANCH  19  21
ATOM     21  C24 FTA A   1       0.804  14.982  12.792  1.00  0.00     0.032 A 
ATOM     22  C26 FTA A   1      -0.135  14.310  13.538  1.00  0.00     0.029 A 
ATOM     23  C28 FTA A   1      -1.425  14.217  13.050  1.00  0.00     0.002 A 
ATOM     24  C30 FTA A   1      -1.811  14.802  11.856  1.00  0.00     0.000 A 
ATOM     25  C29 FTA A   1      -0.894  15.507  11.123  1.00  0.00     0.002 A 
ATOM     26  C27 FTA A   1       0.414  15.599  11.613  1.00  0.00     0.029 A 
ENDBRANCH  19  21
ENDBRANCH  16  19
ENDBRANCH  11  13
ENDBRANCH   1  11
TORSDOF 5
ENDMDL
MODEL 7
REMARK VINA RESULT:    -5.491      1.772      2.945
REMARK INTER + INTRA:          -8.164
REMARK INTER:                  -7.145
REMARK INTRA:                  -1.020
REMARK UNBOUND:                -1.068
REMARK  5 active torsions:
REMARK  status: ('A' for Active; 'I' for Inactive)
REMARK    1  A    between atoms: N8_1  and  C24_2 
REMARK    2  A    between atoms: N8_1  and  C7_8 
REMARK    3  A    between atoms: C2_13  and  N1_14 
REMARK    4  A    between atoms: N1_14  and  C17_15 
REMARK    5  A    between atoms: C14_16  and  C13_19 
ROOT
ATOM      1  C17 FTA A   1       7.509  12.058   9.722  1.00  0.00     0.142 C 
ATOM      2  C14 FTA A   1       8.473  11.590  10.539  1.00  0.00     0.158 C 
ATOM      3  C18 FTA A   1       8.224  10.433  11.371  1.00  0.00     0.069 C 
ATOM      4  N21 FTA A   1       7.864   9.529  12.025  1.00  0.00    -0.197 NA
ENDROOT
BRANCH   2   5
ATOM      5  C13 FTA A   1       9.793  12.261  10.566  1.00  0.00     0.197 A 
ATOM      6  N15 FTA A   1      10.045  13.564  10.991  1.00  0.00    -0.093 NA
ATOM      7  N19 FTA A   1      11.400  13.808  10.809  1.00  0.00    -0.231 N 
ATOM      8  N20 FTA A   1      11.999  12.677  10.273  1.00  0.00    -0.017 NA
ATOM      9  H15 FTA A   1      11.884  14.689  11.036  1.00  0.00     0.200 HD
ATOM     10  N16 FTA A   1      11.006  11.713  10.132  1.00  0.00    -0.090 NA
ENDBRANCH   2   5
BRANCH   1  11
ATOM     11  N1  FTA A   1       7.170  13.360   9.792  1.00  0.00    -0.389 N 
ATOM     12  H11 FTA A   1       7.834  14.046   9.404  1.00  0.00     0.159 HD
BRANCH  11  13
ATOM     13  C2  FTA A   1       5.967  13.860  10.361  1.00  0.00     0.028 A 
ATOM     14  C4  FTA A   1       5.532  15.165  10.146  1.00  0.00     0.031 A 
ATOM     15  C6  FTA A   1       4.471  15.663  10.914  1.00  0.00     0.031 A 
ATOM     16  C7  FTA A   1       3.838  14.896  11.888  1.00  0.00     0.032 A 
ATOM     17  C5  FTA A   1       4.266  13.593  12.073  1.00  0.00     0.031 A 
ATOM     18  C3  FTA A   1       5.325  13.084  11.331  1.00  0.00     0.031 A 
BRANCH  16  19
ATOM     19  N8  FTA A   1       2.912  15.439  12.815  1.00  0.00    -0.356 N 
ATOM     20  H1  FTA A   1       3.289  16.031  13.568  1.00  0.00     0.166 HD
BRANCH  19  21
ATOM     21  C24 FTA A   1       1.499  15.233  12.788  1.00  0.00     0.032 A 
ATOM     22  C26 FTA A   1       0.861  14.493  13.754  1.00  0.00     0.029 A 
ATOM     23  C28 FTA A   1      -0.476  14.186  13.579  1.00  0.00     0.002 A 
ATOM     24  C30 FTA A   1      -1.200  14.624  12.484  1.00  0.00     0.000 A 
ATOM     25  C29 FTA A   1      -0.585  15.395  11.533  1.00  0.00     0.002 A 
ATOM     26  C27 FTA A   1       0.769  15.703  11.706  1.00  0.00     0.029 A 
ENDBRANCH  19  21
ENDBRANCH  16  19
ENDBRANCH  11  13
ENDBRANCH   1  11
TORSDOF 5
ENDMDL
MODEL 8
REMARK VINA RESULT:    -5.454      4.863      8.369
REMARK INTER + INTRA:          -8.116
REMARK INTER:                  -7.222
REMARK INTRA:                  -0.895
REMARK UNBOUND:                -1.068
REMARK  5 active torsions:
REMARK  status: ('A' for Active; 'I' for Inactive)
REMARK    1  A    between atoms: N8_1  and  C24_2 
REMARK    2  A    between atoms: N8_1  and  C7_8 
REMARK    3  A    between atoms: C2_13  and  N1_14 
REMARK    4  A    between atoms: N1_14  and  C17_15 
REMARK    5  A    between atoms: C14_16  and  C13_19 
ROOT
ATOM      1  C17 FTA A   1       6.151  17.840  15.517  1.00  0.00     0.142 C 
ATOM      2  C14 FTA A   1       6.460  17.503  16.785  1.00  0.00     0.158 C 
ATOM      3  C18 FTA A   1       7.805  17.086  17.119  1.00  0.00     0.069 C 
ATOM      4  N21 FTA A   1       8.912  16.715  17.232  1.00  0.00    -0.197 NA
ENDROOT
BRANCH   2   5
ATOM      5  C13 FTA A   1       5.417  17.579  17.833  1.00  0.00     0.197 A 
ATOM      6  N15 FTA A   1       5.318  16.759  18.955  1.00  0.00    -0.093 NA
ATOM      7  N19 FTA A   1       4.176  17.136  19.649  1.00  0.00    -0.231 N 
ATOM      8  N20 FTA A   1       3.557  18.179  18.974  1.00  0.00    -0.017 NA
ATOM      9  H15 FTA A   1       3.840  16.710  20.524  1.00  0.00     0.200 HD
ATOM     10  N16 FTA A   1       4.331  18.462  17.853  1.00  0.00    -0.090 NA
ENDBRANCH   2   5
BRANCH   1  11
ATOM     11  N1  FTA A   1       5.100  17.244  14.922  1.00  0.00    -0.389 N 
ATOM     12  H11 FTA A   1       4.182  17.330  15.381  1.00  0.00     0.159 HD
BRANCH  11  13
ATOM     13  C2  FTA A   1       5.161  16.504  13.710  1.00  0.00     0.028 A 
ATOM     14  C4  FTA A   1       4.017  16.025  13.076  1.00  0.00     0.031 A 
ATOM     15  C6  FTA A   1       4.156  15.114  12.020  1.00  0.00     0.031 A 
ATOM     16  C7  FTA A   1       5.402  14.670  11.584  1.00  0.00     0.032 A 
ATOM     17  C5  FTA A   1       6.530  15.175  12.208  1.00  0.00     0.031 A 
ATOM     18  C3  FTA A   1       6.413  16.068  13.266  1.00  0.00     0.031 A 
BRANCH  16  19
ATOM     19  N8  FTA A   1       5.561  13.600  10.667  1.00  0.00    -0.356 N 
ATOM     20  H1  FTA A   1       4.952  13.596   9.836  1.00  0.00     0.166 HD
BRANCH  19  21
ATOM     21  C24 FTA A   1       6.494  12.528  10.801  1.00  0.00     0.032 A 
ATOM     22  C26 FTA A   1       6.698  11.896  12.005  1.00  0.00     0.029 A 
ATOM     23  C28 FTA A   1       7.734  10.988  12.109  1.00  0.00     0.002 A 
ATOM     24  C30 FTA A   1       8.552  10.668  11.038  1.00  0.00     0.000 A 
ATOM     25  C29 FTA A   1       8.335  11.262   9.824  1.00  0.00     0.002 A 
ATOM     26  C27 FTA A   1       7.289  12.185   9.717  1.00  0.00     0.029 A 
ENDBRANCH  19  21
ENDBRANCH  16  19
ENDBRANCH  11  13
ENDBRANCH   1  11
TORSDOF 5
ENDMDL
MODEL 9
REMARK VINA RESULT:    -5.427      4.592      8.223
REMARK INTER + INTRA:          -8.081
REMARK INTER:                  -7.109
REMARK INTRA:                  -0.972
REMARK UNBOUND:                -1.068
REMARK  5 active torsions:
REMARK  status: ('A' for Active; 'I' for Inactive)
REMARK    1  A    between atoms: N8_1  and  C24_2 
REMARK    2  A    between atoms: N8_1  and  C7_8 
REMARK    3  A    between atoms: C2_13  and  N1_14 
REMARK    4  A    between atoms: N1_14  and  C17_15 
REMARK    5  A    between atoms: C14_16  and  C13_19 
ROOT
ATOM      1  C17 FTA A   1       4.239  17.130  15.892  1.00  0.00     0.142 C 
ATOM      2  C14 FTA A   1       4.952  17.549  16.956  1.00  0.00     0.158 C 
ATOM      3  C18 FTA A   1       4.299  18.259  18.034  1.00  0.00     0.069 C 
ATOM      4  N21 FTA A   1       3.653  18.869  18.800  1.00  0.00    -0.197 NA
ENDROOT
BRANCH   2   5
ATOM      5  C13 FTA A   1       6.404  17.263  17.018  1.00  0.00     0.197 A 
ATOM      6  N15 FTA A   1       7.367  17.698  16.111  1.00  0.00    -0.093 NA
ATOM      7  N19 FTA A   1       8.588  17.171  16.512  1.00  0.00    -0.231 N 
ATOM      8  N20 FTA A   1       8.400  16.410  17.657  1.00  0.00    -0.017 NA
ATOM      9  H15 FTA A   1       9.489  17.320  16.036  1.00  0.00     0.200 HD
ATOM     10  N16 FTA A   1       7.048  16.475  17.979  1.00  0.00    -0.090 NA
ENDBRANCH   2   5
BRANCH   1  11
ATOM     11  N1  FTA A   1       4.654  17.467  14.656  1.00  0.00    -0.389 N 
ATOM     12  H11 FTA A   1       4.914  18.451  14.493  1.00  0.00     0.159 HD
BRANCH  11  13
ATOM     13  C2  FTA A   1       4.761  16.570  13.558  1.00  0.00     0.028 A 
ATOM     14  C4  FTA A   1       3.643  15.997  12.958  1.00  0.00     0.031 A 
ATOM     15  C6  FTA A   1       3.824  14.952  12.041  1.00  0.00     0.031 A 
ATOM     16  C7  FTA A   1       5.087  14.466  11.713  1.00  0.00     0.032 A 
ATOM     17  C5  FTA A   1       6.189  15.064  12.299  1.00  0.00     0.031 A 
ATOM     18  C3  FTA A   1       6.030  16.091  13.220  1.00  0.00     0.031 A 
BRANCH  16  19
ATOM     19  N8  FTA A   1       5.283  13.283  10.956  1.00  0.00    -0.356 N 
ATOM     20  H1  FTA A   1       4.498  12.959  10.372  1.00  0.00     0.166 HD
BRANCH  19  21
ATOM     21  C24 FTA A   1       6.479  12.503  10.936  1.00  0.00     0.032 A 
ATOM     22  C26 FTA A   1       7.216  12.343   9.787  1.00  0.00     0.029 A 
ATOM     23  C28 FTA A   1       8.262  11.440   9.791  1.00  0.00     0.002 A 
ATOM     24  C30 FTA A   1       8.614  10.717  10.918  1.00  0.00     0.000 A 
ATOM     25  C29 FTA A   1       7.913  10.896  12.080  1.00  0.00     0.002 A 
ATOM     26  C27 FTA A   1       6.850  11.807  12.078  1.00  0.00     0.029 A 
ENDBRANCH  19  21
ENDBRANCH  16  19
ENDBRANCH  11  13
ENDBRANCH   1  11
TORSDOF 5
ENDMDL
