MODEL 1
REMARK VINA RESULT:    -7.378      0.000      0.000
REMARK INTER + INTRA:         -12.457
REMARK INTER:                 -10.040
REMARK INTRA:                  -2.417
REMARK UNBOUND:                -2.491
REMARK  7 active torsions:
REMARK  status: ('A' for Active; 'I' for Inactive)
REMARK    1  A    between atoms: C_2  and  N_4 
REMARK    2  A    between atoms: N_4  and  S_6 
REMARK    3  A    between atoms: S_6  and  C_9 
REMARK    4  A    between atoms: C_11  and  C_12 
REMARK    5  A    between atoms: N_17  and  C_18 
REMARK    6  A    between atoms: C_25  and  O_26 
REMARK    7  A    between atoms: C_28  and  O_29 
ROOT
HETATM    1  C   UNL     1       6.768  10.894  21.812  0.00  0.00     0.108 C 
HETATM    2  C   UNL     1       7.263  11.239  23.086  0.00  0.00     0.041 C 
HETATM    3  C   UNL     1       8.347  12.116  23.240  0.00  0.00     0.023 C 
HETATM    4  C   UNL     1       9.041  12.479  22.078  0.00  0.00     0.078 C 
HETATM    5  C   UNL     1       8.632  12.036  20.816  0.00  0.00     0.075 C 
HETATM    6  C   UNL     1       7.470  11.278  20.677  0.00  0.00     0.091 C 
ENDROOT
BRANCH   3   7
HETATM    7  C   UNL     1       8.572  12.803  24.578  0.00  0.00     0.277 C 
HETATM    8  N   UNL     1      10.021  12.771  24.903  0.00  0.00    -0.156 NA
HETATM    9  N   UNL     1      10.409  13.909  25.269  0.00  0.00    -0.093 NA
HETATM   10  C   UNL     1       9.353  14.799  25.232  0.00  0.00     0.369 C 
HETATM   11  O   UNL     1       9.412  15.935  25.677  0.00  0.00    -0.243 OA
HETATM   12  N   UNL     1       8.242  14.186  24.673  0.00  0.00    -0.264 N 
BRANCH  12  13
HETATM   13  C   UNL     1       6.954  14.758  24.523  0.00  0.00     0.080 A 
HETATM   14  C   UNL     1       6.090  14.865  25.620  0.00  0.00     0.033 A 
HETATM   15  C   UNL     1       4.810  15.421  25.491  0.00  0.00     0.002 A 
HETATM   16  C   UNL     1       4.374  15.884  24.256  0.00  0.00     0.003 A 
HETATM   17  C   UNL     1       5.219  15.800  23.153  0.00  0.00     0.044 A 
HETATM   18  C   UNL     1       6.491  15.244  23.290  0.00  0.00     0.143 A 
HETATM   19  F   UNL     1       7.241  15.133  22.180  0.00  0.00    -0.204 F 
ENDBRANCH  12  13
ENDBRANCH   3   7
BRANCH   4  20
HETATM   20  O   UNL     1      10.116  13.320  22.079  0.00  0.00    -0.360 OA
HETATM   21  H   UNL     1      10.920  12.846  21.805  0.00  0.00     0.217 HD
ENDBRANCH   4  20
BRANCH   1  22
HETATM   22  S   UNL     1       5.181  10.078  21.745  0.00  0.00     0.246 S 
HETATM   23  O   UNL     1       4.368  10.819  20.801  0.00  0.00    -0.206 OA
HETATM   24  O   UNL     1       4.679   9.867  23.085  0.00  0.00    -0.206 OA
BRANCH  22  25
HETATM   25  N   UNL     1       5.574   8.536  21.036  0.00  0.00    -0.207 NA
HETATM   26  C   UNL     1       4.705   8.220  19.865  0.00  0.00     0.130 C 
BRANCH  25  27
HETATM   27  C   UNL     1       5.791   7.349  21.954  0.00  0.00     0.065 C 
HETATM   28  C   UNL     1       5.692   6.020  21.188  0.00  0.00     0.027 C 
HETATM   29  C   UNL     1       7.167   7.338  22.626  0.00  0.00     0.027 C 
ENDBRANCH  25  27
ENDBRANCH  22  25
ENDBRANCH   1  22
BRANCH   6  30
HETATM   30  O   UNL     1       7.021  10.988  19.425  0.00  0.00    -0.359 OA
HETATM   31  H   UNL     1       6.280  11.573  19.190  0.00  0.00     0.217 HD
ENDBRANCH   6  30
TORSDOF 7
ENDMDL
MODEL 2
REMARK VINA RESULT:    -7.363      0.888      1.258
REMARK INTER + INTRA:         -12.436
REMARK INTER:                 -10.150
REMARK INTRA:                  -2.287
REMARK UNBOUND:                -2.491
REMARK  7 active torsions:
REMARK  status: ('A' for Active; 'I' for Inactive)
REMARK    1  A    between atoms: C_2  and  N_4 
REMARK    2  A    between atoms: N_4  and  S_6 
REMARK    3  A    between atoms: S_6  and  C_9 
REMARK    4  A    between atoms: C_11  and  C_12 
REMARK    5  A    between atoms: N_17  and  C_18 
REMARK    6  A    between atoms: C_25  and  O_26 
REMARK    7  A    between atoms: C_28  and  O_29 
ROOT
HETATM    1  C   UNL     1       6.792  10.874  21.830  0.00  0.00     0.108 C 
HETATM    2  C   UNL     1       7.299  11.226  23.097  0.00  0.00     0.041 C 
HETATM    3  C   UNL     1       8.377  12.111  23.236  0.00  0.00     0.023 C 
HETATM    4  C   UNL     1       9.055  12.476  22.066  0.00  0.00     0.078 C 
HETATM    5  C   UNL     1       8.635  12.028  20.810  0.00  0.00     0.075 C 
HETATM    6  C   UNL     1       7.477  11.261  20.686  0.00  0.00     0.091 C 
ENDROOT
BRANCH   3   7
HETATM    7  C   UNL     1       8.612  12.803  24.570  0.00  0.00     0.277 C 
HETATM    8  N   UNL     1      10.065  12.782  24.879  0.00  0.00    -0.156 NA
HETATM    9  N   UNL     1      10.449  13.924  25.238  0.00  0.00    -0.093 NA
HETATM   10  C   UNL     1       9.386  14.806  25.211  0.00  0.00     0.369 C 
HETATM   11  O   UNL     1       9.442  15.944  25.652  0.00  0.00    -0.243 OA
HETATM   12  N   UNL     1       8.273  14.184  24.667  0.00  0.00    -0.264 N 
BRANCH  12  13
HETATM   13  C   UNL     1       6.980  14.745  24.530  0.00  0.00     0.080 A 
HETATM   14  C   UNL     1       6.522  15.181  23.280  0.00  0.00     0.033 A 
HETATM   15  C   UNL     1       5.248  15.747  23.123  0.00  0.00     0.002 A 
HETATM   16  C   UNL     1       4.409  15.881  24.222  0.00  0.00     0.003 A 
HETATM   17  C   UNL     1       4.836  15.444  25.473  0.00  0.00     0.044 A 
HETATM   18  C   UNL     1       6.105  14.885  25.619  0.00  0.00     0.143 A 
HETATM   19  F   UNL     1       6.488  14.535  26.859  0.00  0.00    -0.204 F 
ENDBRANCH  12  13
ENDBRANCH   3   7
BRANCH   4  20
HETATM   20  O   UNL     1      10.124  13.325  22.053  0.00  0.00    -0.360 OA
HETATM   21  H   UNL     1      10.739  13.111  22.775  0.00  0.00     0.217 HD
ENDBRANCH   4  20
BRANCH   1  22
HETATM   22  S   UNL     1       5.209  10.046  21.783  0.00  0.00     0.246 S 
HETATM   23  O   UNL     1       4.384  10.773  20.840  0.00  0.00    -0.206 OA
HETATM   24  O   UNL     1       4.721   9.843  23.128  0.00  0.00    -0.206 OA
BRANCH  22  25
HETATM   25  N   UNL     1       5.608   8.500  21.083  0.00  0.00    -0.207 NA
HETATM   26  C   UNL     1       4.735   8.171  19.919  0.00  0.00     0.130 C 
BRANCH  25  27
HETATM   27  C   UNL     1       5.837   7.323  22.009  0.00  0.00     0.065 C 
HETATM   28  C   UNL     1       5.731   5.987  21.256  0.00  0.00     0.027 C 
HETATM   29  C   UNL     1       7.221   7.319  22.665  0.00  0.00     0.027 C 
ENDBRANCH  25  27
ENDBRANCH  22  25
ENDBRANCH   1  22
BRANCH   6  30
HETATM   30  O   UNL     1       7.016  10.964  19.439  0.00  0.00    -0.359 OA
HETATM   31  H   UNL     1       6.570  10.099  19.444  0.00  0.00     0.217 HD
ENDBRANCH   6  30
TORSDOF 7
ENDMDL
MODEL 3
REMARK VINA RESULT:    -7.286      1.806      2.456
REMARK INTER + INTRA:         -12.333
REMARK INTER:                  -9.727
REMARK INTRA:                  -2.607
REMARK UNBOUND:                -2.491
REMARK  7 active torsions:
REMARK  status: ('A' for Active; 'I' for Inactive)
REMARK    1  A    between atoms: C_2  and  N_4 
REMARK    2  A    between atoms: N_4  and  S_6 
REMARK    3  A    between atoms: S_6  and  C_9 
REMARK    4  A    between atoms: C_11  and  C_12 
REMARK    5  A    between atoms: N_17  and  C_18 
REMARK    6  A    between atoms: C_25  and  O_26 
REMARK    7  A    between atoms: C_28  and  O_29 
ROOT
HETATM    1  C   UNL     1       6.801  10.926  21.797  0.00  0.00     0.108 C 
HETATM    2  C   UNL     1       7.274  11.256  23.084  0.00  0.00     0.041 C 
HETATM    3  C   UNL     1       8.368  12.115  23.266  0.00  0.00     0.023 C 
HETATM    4  C   UNL     1       9.092  12.473  22.122  0.00  0.00     0.078 C 
HETATM    5  C   UNL     1       8.705  12.044  20.849  0.00  0.00     0.075 C 
HETATM    6  C   UNL     1       7.534  11.304  20.680  0.00  0.00     0.091 C 
ENDROOT
BRANCH   3   7
HETATM    7  C   UNL     1       8.574  12.791  24.613  0.00  0.00     0.277 C 
HETATM    8  N   UNL     1      10.017  12.752  24.959  0.00  0.00    -0.156 NA
HETATM    9  N   UNL     1      10.403  13.886  25.341  0.00  0.00    -0.093 NA
HETATM   10  C   UNL     1       9.350  14.780  25.294  0.00  0.00     0.369 C 
HETATM   11  O   UNL     1       9.405  15.912  25.748  0.00  0.00    -0.243 OA
HETATM   12  N   UNL     1       8.246  14.174  24.714  0.00  0.00    -0.264 N 
BRANCH  12  13
HETATM   13  C   UNL     1       6.962  14.750  24.548  0.00  0.00     0.080 A 
HETATM   14  C   UNL     1       6.522  15.155  23.282  0.00  0.00     0.033 A 
HETATM   15  C   UNL     1       5.258  15.734  23.097  0.00  0.00     0.002 A 
HETATM   16  C   UNL     1       4.411  15.913  24.183  0.00  0.00     0.003 A 
HETATM   17  C   UNL     1       4.820  15.507  25.450  0.00  0.00     0.044 A 
HETATM   18  C   UNL     1       6.080  14.935  25.625  0.00  0.00     0.143 A 
HETATM   19  F   UNL     1       6.447  14.617  26.878  0.00  0.00    -0.204 F 
ENDBRANCH  12  13
ENDBRANCH   3   7
BRANCH   4  20
HETATM   20  O   UNL     1      10.180  13.296  22.152  0.00  0.00    -0.360 OA
HETATM   21  H   UNL     1      10.604  13.333  21.277  0.00  0.00     0.217 HD
ENDBRANCH   4  20
BRANCH   1  22
HETATM   22  S   UNL     1       5.203  10.135  21.691  0.00  0.00     0.246 S 
HETATM   23  O   UNL     1       5.424   8.819  21.125  0.00  0.00    -0.206 OA
HETATM   24  O   UNL     1       4.258  11.022  21.051  0.00  0.00    -0.206 OA
BRANCH  22  25
HETATM   25  N   UNL     1       4.760   9.943  23.365  0.00  0.00    -0.207 NA
HETATM   26  C   UNL     1       4.773   8.512  23.787  0.00  0.00     0.130 C 
BRANCH  25  27
HETATM   27  C   UNL     1       3.562  10.708  23.890  0.00  0.00     0.065 C 
HETATM   28  C   UNL     1       2.847   9.934  25.010  0.00  0.00     0.027 C 
HETATM   29  C   UNL     1       3.920  12.070  24.492  0.00  0.00     0.027 C 
ENDBRANCH  25  27
ENDBRANCH  22  25
ENDBRANCH   1  22
BRANCH   6  30
HETATM   30  O   UNL     1       7.108  11.028  19.417  0.00  0.00    -0.359 OA
HETATM   31  H   UNL     1       7.110  11.838  18.877  0.00  0.00     0.217 HD
ENDBRANCH   6  30
TORSDOF 7
ENDMDL
MODEL 4
REMARK VINA RESULT:    -7.100      2.772      7.451
REMARK INTER + INTRA:         -12.081
REMARK INTER:                  -9.809
REMARK INTRA:                  -2.272
REMARK UNBOUND:                -2.491
REMARK  7 active torsions:
REMARK  status: ('A' for Active; 'I' for Inactive)
REMARK    1  A    between atoms: C_2  and  N_4 
REMARK    2  A    between atoms: N_4  and  S_6 
REMARK    3  A    between atoms: S_6  and  C_9 
REMARK    4  A    between atoms: C_11  and  C_12 
REMARK    5  A    between atoms: N_17  and  C_18 
REMARK    6  A    between atoms: C_25  and  O_26 
REMARK    7  A    between atoms: C_28  and  O_29 
ROOT
HETATM    1  C   UNL     1       6.094  12.105  23.191  0.00  0.00     0.108 C 
HETATM    2  C   UNL     1       5.122  11.483  22.382  0.00  0.00     0.041 C 
HETATM    3  C   UNL     1       5.439  10.968  21.117  0.00  0.00     0.023 C 
HETATM    4  C   UNL     1       6.708  11.269  20.609  0.00  0.00     0.078 C 
HETATM    5  C   UNL     1       7.640  11.998  21.355  0.00  0.00     0.075 C 
HETATM    6  C   UNL     1       7.350  12.380  22.665  0.00  0.00     0.091 C 
ENDROOT
BRANCH   3   7
HETATM    7  C   UNL     1       4.519   9.942  20.473  0.00  0.00     0.277 C 
HETATM    8  N   UNL     1       4.418  10.226  19.019  0.00  0.00    -0.156 NA
HETATM    9  N   UNL     1       4.581   9.170  18.358  0.00  0.00    -0.093 NA
HETATM   10  C   UNL     1       4.810   8.110  19.214  0.00  0.00     0.369 C 
HETATM   11  O   UNL     1       4.855   6.945  18.850  0.00  0.00    -0.243 OA
HETATM   12  N   UNL     1       4.923   8.575  20.516  0.00  0.00    -0.264 N 
BRANCH  12  13
HETATM   13  C   UNL     1       5.098   7.784  21.678  0.00  0.00     0.080 A 
HETATM   14  C   UNL     1       6.377   7.576  22.211  0.00  0.00     0.033 A 
HETATM   15  C   UNL     1       6.574   6.791  23.356  0.00  0.00     0.002 A 
HETATM   16  C   UNL     1       5.487   6.203  23.990  0.00  0.00     0.003 A 
HETATM   17  C   UNL     1       4.204   6.405  23.487  0.00  0.00     0.044 A 
HETATM   18  C   UNL     1       4.018   7.186  22.347  0.00  0.00     0.143 A 
HETATM   19  F   UNL     1       2.767   7.298  21.870  0.00  0.00    -0.204 F 
ENDBRANCH  12  13
ENDBRANCH   3   7
BRANCH   4  20
HETATM   20  O   UNL     1       7.150  10.838  19.390  0.00  0.00    -0.360 OA
HETATM   21  H   UNL     1       8.094  11.041  19.278  0.00  0.00     0.217 HD
ENDBRANCH   4  20
BRANCH   1  22
HETATM   22  S   UNL     1       5.674  12.388  24.904  0.00  0.00     0.246 S 
HETATM   23  O   UNL     1       6.729  11.791  25.698  0.00  0.00    -0.206 OA
HETATM   24  O   UNL     1       4.306  11.990  25.147  0.00  0.00    -0.206 OA
BRANCH  22  25
HETATM   25  N   UNL     1       5.796  14.120  25.046  0.00  0.00    -0.207 NA
HETATM   26  C   UNL     1       6.439  14.533  26.327  0.00  0.00     0.130 C 
BRANCH  25  27
HETATM   27  C   UNL     1       4.590  14.964  24.685  0.00  0.00     0.065 C 
HETATM   28  C   UNL     1       4.112  15.801  25.882  0.00  0.00     0.027 C 
HETATM   29  C   UNL     1       4.859  15.967  23.560  0.00  0.00     0.027 C 
ENDBRANCH  25  27
ENDBRANCH  22  25
ENDBRANCH   1  22
BRANCH   6  30
HETATM   30  O   UNL     1       8.329  12.959  23.413  0.00  0.00    -0.359 OA
HETATM   31  H   UNL     1       8.677  12.321  24.060  0.00  0.00     0.217 HD
ENDBRANCH   6  30
TORSDOF 7
ENDMDL
MODEL 5
REMARK VINA RESULT:    -6.763      2.295      3.350
REMARK INTER + INTRA:         -11.626
REMARK INTER:                  -9.571
REMARK INTRA:                  -2.054
REMARK UNBOUND:                -2.491
REMARK  7 active torsions:
REMARK  status: ('A' for Active; 'I' for Inactive)
REMARK    1  A    between atoms: C_2  and  N_4 
REMARK    2  A    between atoms: N_4  and  S_6 
REMARK    3  A    between atoms: S_6  and  C_9 
REMARK    4  A    between atoms: C_11  and  C_12 
REMARK    5  A    between atoms: N_17  and  C_18 
REMARK    6  A    between atoms: C_25  and  O_26 
REMARK    7  A    between atoms: C_28  and  O_29 
ROOT
HETATM    1  C   UNL     1       5.494  10.344  23.927  0.00  0.00     0.108 C 
HETATM    2  C   UNL     1       6.194  11.041  24.933  0.00  0.00     0.041 C 
HETATM    3  C   UNL     1       7.437  11.639  24.682  0.00  0.00     0.023 C 
HETATM    4  C   UNL     1       8.046  11.350  23.454  0.00  0.00     0.078 C 
HETATM    5  C   UNL     1       7.413  10.551  22.497  0.00  0.00     0.075 C 
HETATM    6  C   UNL     1       6.118  10.082  22.714  0.00  0.00     0.091 C 
ENDROOT
BRANCH   3   7
HETATM    7  C   UNL     1       7.948  12.727  25.614  0.00  0.00     0.277 C 
HETATM    8  N   UNL     1       9.416  12.577  25.777  0.00  0.00    -0.156 NA
HETATM    9  N   UNL     1       9.985  13.688  25.628  0.00  0.00    -0.093 NA
HETATM   10  C   UNL     1       9.046  14.663  25.352  0.00  0.00     0.369 C 
HETATM   11  O   UNL     1       9.304  15.856  25.308  0.00  0.00    -0.243 OA
HETATM   12  N   UNL     1       7.798  14.081  25.194  0.00  0.00    -0.264 N 
BRANCH  12  13
HETATM   13  C   UNL     1       6.576  14.761  24.963  0.00  0.00     0.080 A 
HETATM   14  C   UNL     1       5.665  14.962  26.007  0.00  0.00     0.033 A 
HETATM   15  C   UNL     1       4.448  15.627  25.799  0.00  0.00     0.002 A 
HETATM   16  C   UNL     1       4.126  16.105  24.535  0.00  0.00     0.003 A 
HETATM   17  C   UNL     1       5.021  15.929  23.483  0.00  0.00     0.044 A 
HETATM   18  C   UNL     1       6.228  15.265  23.700  0.00  0.00     0.143 A 
HETATM   19  F   UNL     1       7.026  15.070  22.636  0.00  0.00    -0.204 F 
ENDBRANCH  12  13
ENDBRANCH   3   7
BRANCH   4  20
HETATM   20  O   UNL     1       9.256  11.857  23.079  0.00  0.00    -0.360 OA
HETATM   21  H   UNL     1       9.687  12.302  23.829  0.00  0.00     0.217 HD
ENDBRANCH   4  20
BRANCH   1  22
HETATM   22  S   UNL     1       3.782   9.947  24.246  0.00  0.00     0.246 S 
HETATM   23  O   UNL     1       3.632   9.869  25.685  0.00  0.00    -0.206 OA
HETATM   24  O   UNL     1       3.380   8.817  23.439  0.00  0.00    -0.206 OA
BRANCH  22  25
HETATM   25  N   UNL     1       2.949  11.372  23.686  0.00  0.00    -0.207 NA
HETATM   26  C   UNL     1       3.890  12.387  23.130  0.00  0.00     0.130 C 
BRANCH  25  27
HETATM   27  C   UNL     1       1.872  11.975  24.566  0.00  0.00     0.065 C 
HETATM   28  C   UNL     1       1.544  13.416  24.144  0.00  0.00     0.027 C 
HETATM   29  C   UNL     1       0.543  11.216  24.514  0.00  0.00     0.027 C 
ENDBRANCH  25  27
ENDBRANCH  22  25
ENDBRANCH   1  22
BRANCH   6  30
HETATM   30  O   UNL     1       5.476   9.432  21.704  0.00  0.00    -0.359 OA
HETATM   31  H   UNL     1       4.696   9.940  21.421  0.00  0.00     0.217 HD
ENDBRANCH   6  30
TORSDOF 7
ENDMDL
MODEL 6
REMARK VINA RESULT:    -6.725      2.598      6.868
REMARK INTER + INTRA:         -11.574
REMARK INTER:                  -9.313
REMARK INTRA:                  -2.262
REMARK UNBOUND:                -2.491
REMARK  7 active torsions:
REMARK  status: ('A' for Active; 'I' for Inactive)
REMARK    1  A    between atoms: C_2  and  N_4 
REMARK    2  A    between atoms: N_4  and  S_6 
REMARK    3  A    between atoms: S_6  and  C_9 
REMARK    4  A    between atoms: C_11  and  C_12 
REMARK    5  A    between atoms: N_17  and  C_18 
REMARK    6  A    between atoms: C_25  and  O_26 
REMARK    7  A    between atoms: C_28  and  O_29 
ROOT
HETATM    1  C   UNL     1       6.536  13.290  24.344  0.00  0.00     0.108 C 
HETATM    2  C   UNL     1       6.566  11.993  23.792  0.00  0.00     0.041 C 
HETATM    3  C   UNL     1       5.538  11.526  22.959  0.00  0.00     0.023 C 
HETATM    4  C   UNL     1       4.391  12.323  22.857  0.00  0.00     0.078 C 
HETATM    5  C   UNL     1       4.301  13.558  23.507  0.00  0.00     0.075 C 
HETATM    6  C   UNL     1       5.390  14.063  24.217  0.00  0.00     0.091 C 
ENDROOT
BRANCH   3   7
HETATM    7  C   UNL     1       5.795  10.338  22.046  0.00  0.00     0.277 C 
HETATM    8  N   UNL     1       4.505   9.659  21.758  0.00  0.00    -0.156 NA
HETATM    9  N   UNL     1       4.396   9.439  20.525  0.00  0.00    -0.093 NA
HETATM   10  C   UNL     1       5.511   9.915  19.863  0.00  0.00     0.369 C 
HETATM   11  O   UNL     1       5.736   9.704  18.681  0.00  0.00    -0.243 OA
HETATM   12  N   UNL     1       6.325  10.603  20.750  0.00  0.00    -0.264 N 
BRANCH  12  13
HETATM   13  C   UNL     1       7.585  11.183  20.457  0.00  0.00     0.080 A 
HETATM   14  C   UNL     1       7.695  12.203  19.504  0.00  0.00     0.033 A 
HETATM   15  C   UNL     1       8.932  12.785  19.195  0.00  0.00     0.002 A 
HETATM   16  C   UNL     1      10.084  12.354  19.841  0.00  0.00     0.003 A 
HETATM   17  C   UNL     1       9.999  11.350  20.802  0.00  0.00     0.044 A 
HETATM   18  C   UNL     1       8.764  10.775  21.102  0.00  0.00     0.143 A 
HETATM   19  F   UNL     1       8.749   9.770  21.993  0.00  0.00    -0.204 F 
ENDBRANCH  12  13
ENDBRANCH   3   7
BRANCH   4  20
HETATM   20  O   UNL     1       3.313  11.991  22.089  0.00  0.00    -0.360 OA
HETATM   21  H   UNL     1       3.260  11.027  21.974  0.00  0.00     0.217 HD
ENDBRANCH   4  20
BRANCH   1  22
HETATM   22  S   UNL     1       8.047  13.902  25.075  0.00  0.00     0.246 S 
HETATM   23  O   UNL     1       8.552  12.851  25.935  0.00  0.00    -0.206 OA
HETATM   24  O   UNL     1       7.825  15.217  25.634  0.00  0.00    -0.206 OA
BRANCH  22  25
HETATM   25  N   UNL     1       9.108  14.040  23.699  0.00  0.00    -0.207 NA
HETATM   26  C   UNL     1      10.495  13.590  24.015  0.00  0.00     0.130 C 
BRANCH  25  27
HETATM   27  C   UNL     1       9.067  15.313  22.877  0.00  0.00     0.065 C 
HETATM   28  C   UNL     1      10.369  15.512  22.084  0.00  0.00     0.027 C 
HETATM   29  C   UNL     1       7.943  15.334  21.837  0.00  0.00     0.027 C 
ENDBRANCH  25  27
ENDBRANCH  22  25
ENDBRANCH   1  22
BRANCH   6  30
HETATM   30  O   UNL     1       5.321  15.329  24.713  0.00  0.00    -0.359 OA
HETATM   31  H   UNL     1       5.856  15.932  24.169  0.00  0.00     0.217 HD
ENDBRANCH   6  30
TORSDOF 7
ENDMDL
MODEL 7
REMARK VINA RESULT:    -6.640      1.890      2.162
REMARK INTER + INTRA:         -11.459
REMARK INTER:                  -9.427
REMARK INTRA:                  -2.033
REMARK UNBOUND:                -2.491
REMARK  7 active torsions:
REMARK  status: ('A' for Active; 'I' for Inactive)
REMARK    1  A    between atoms: C_2  and  N_4 
REMARK    2  A    between atoms: N_4  and  S_6 
REMARK    3  A    between atoms: S_6  and  C_9 
REMARK    4  A    between atoms: C_11  and  C_12 
REMARK    5  A    between atoms: N_17  and  C_18 
REMARK    6  A    between atoms: C_25  and  O_26 
REMARK    7  A    between atoms: C_28  and  O_29 
ROOT
HETATM    1  C   UNL     1       6.246  10.288  23.209  0.00  0.00     0.108 C 
HETATM    2  C   UNL     1       6.783  10.895  24.363  0.00  0.00     0.041 C 
HETATM    3  C   UNL     1       7.931  11.698  24.303  0.00  0.00     0.023 C 
HETATM    4  C   UNL     1       8.634  11.713  23.092  0.00  0.00     0.078 C 
HETATM    5  C   UNL     1       8.177  11.009  21.975  0.00  0.00     0.075 C 
HETATM    6  C   UNL     1       6.960  10.329  22.018  0.00  0.00     0.091 C 
ENDROOT
BRANCH   3   7
HETATM    7  C   UNL     1       8.224  12.672  25.435  0.00  0.00     0.277 C 
HETATM    8  N   UNL     1       9.663  12.581  25.793  0.00  0.00    -0.156 NA
HETATM    9  N   UNL     1      10.163  13.731  25.875  0.00  0.00    -0.093 NA
HETATM   10  C   UNL     1       9.202  14.682  25.592  0.00  0.00     0.369 C 
HETATM   11  O   UNL     1       9.375  15.882  25.742  0.00  0.00    -0.243 OA
HETATM   12  N   UNL     1       8.034  14.060  25.176  0.00  0.00    -0.264 N 
BRANCH  12  13
HETATM   13  C   UNL     1       6.810  14.699  24.857  0.00  0.00     0.080 A 
HETATM   14  C   UNL     1       5.855  14.944  25.851  0.00  0.00     0.033 A 
HETATM   15  C   UNL     1       4.635  15.568  25.555  0.00  0.00     0.002 A 
HETATM   16  C   UNL     1       4.353  15.961  24.254  0.00  0.00     0.003 A 
HETATM   17  C   UNL     1       5.292  15.740  23.249  0.00  0.00     0.044 A 
HETATM   18  C   UNL     1       6.502  15.117  23.552  0.00  0.00     0.143 A 
HETATM   19  F   UNL     1       7.346  14.875  22.534  0.00  0.00    -0.204 F 
ENDBRANCH  12  13
ENDBRANCH   3   7
BRANCH   4  20
HETATM   20  O   UNL     1       9.769  12.445  22.894  0.00  0.00    -0.360 OA
HETATM   21  H   UNL     1      10.559  11.900  23.049  0.00  0.00     0.217 HD
ENDBRANCH   4  20
BRANCH   1  22
HETATM   22  S   UNL     1       4.602   9.602  23.335  0.00  0.00     0.246 S 
HETATM   23  O   UNL     1       4.374   8.834  22.128  0.00  0.00    -0.206 OA
HETATM   24  O   UNL     1       3.662  10.641  23.691  0.00  0.00    -0.206 OA
BRANCH  22  25
HETATM   25  N   UNL     1       4.753   8.491  24.669  0.00  0.00    -0.207 NA
HETATM   26  C   UNL     1       5.777   7.438  24.407  0.00  0.00     0.130 C 
BRANCH  25  27
HETATM   27  C   UNL     1       3.490   7.948  25.307  0.00  0.00     0.065 C 
HETATM   28  C   UNL     1       3.061   6.619  24.664  0.00  0.00     0.027 C 
HETATM   29  C   UNL     1       3.636   7.655  26.804  0.00  0.00     0.027 C 
ENDBRANCH  25  27
ENDBRANCH  22  25
ENDBRANCH   1  22
BRANCH   6  30
HETATM   30  O   UNL     1       6.474   9.777  20.873  0.00  0.00    -0.359 OA
HETATM   31  H   UNL     1       6.321  10.468  20.206  0.00  0.00     0.217 HD
ENDBRANCH   6  30
TORSDOF 7
ENDMDL
MODEL 8
REMARK VINA RESULT:    -6.536      4.172      6.173
REMARK INTER + INTRA:         -11.320
REMARK INTER:                  -8.829
REMARK INTRA:                  -2.491
REMARK UNBOUND:                -2.491
REMARK  7 active torsions:
REMARK  status: ('A' for Active; 'I' for Inactive)
REMARK    1  A    between atoms: C_2  and  N_4 
REMARK    2  A    between atoms: N_4  and  S_6 
REMARK    3  A    between atoms: S_6  and  C_9 
REMARK    4  A    between atoms: C_11  and  C_12 
REMARK    5  A    between atoms: N_17  and  C_18 
REMARK    6  A    between atoms: C_25  and  O_26 
REMARK    7  A    between atoms: C_28  and  O_29 
ROOT
HETATM    1  C   UNL     1       2.023  14.106  24.458  0.00  0.00     0.108 C 
HETATM    2  C   UNL     1       3.042  14.240  23.493  0.00  0.00     0.041 C 
HETATM    3  C   UNL     1       4.346  14.616  23.848  0.00  0.00     0.023 C 
HETATM    4  C   UNL     1       4.546  15.045  25.166  0.00  0.00     0.078 C 
HETATM    5  C   UNL     1       3.507  15.038  26.102  0.00  0.00     0.075 C 
HETATM    6  C   UNL     1       2.254  14.528  25.761  0.00  0.00     0.091 C 
ENDROOT
BRANCH   3   7
HETATM    7  C   UNL     1       5.495  14.329  22.895  0.00  0.00     0.277 C 
HETATM    8  N   UNL     1       6.440  15.475  22.914  0.00  0.00    -0.156 NA
HETATM    9  N   UNL     1       7.621  15.063  23.037  0.00  0.00    -0.093 NA
HETATM   10  C   UNL     1       7.630  13.684  23.123  0.00  0.00     0.369 C 
HETATM   11  O   UNL     1       8.650  13.012  23.099  0.00  0.00    -0.243 OA
HETATM   12  N   UNL     1       6.328  13.209  23.184  0.00  0.00    -0.264 N 
BRANCH  12  13
HETATM   13  C   UNL     1       5.931  11.850  23.217  0.00  0.00     0.080 A 
HETATM   14  C   UNL     1       5.721  11.140  22.028  0.00  0.00     0.033 A 
HETATM   15  C   UNL     1       5.320   9.796  22.039  0.00  0.00     0.002 A 
HETATM   16  C   UNL     1       5.127   9.139  23.247  0.00  0.00     0.003 A 
HETATM   17  C   UNL     1       5.342   9.819  24.443  0.00  0.00     0.044 A 
HETATM   18  C   UNL     1       5.738  11.156  24.423  0.00  0.00     0.143 A 
HETATM   19  F   UNL     1       5.872  11.780  25.605  0.00  0.00    -0.204 F 
ENDBRANCH  12  13
ENDBRANCH   3   7
BRANCH   4  20
HETATM   20  O   UNL     1       5.759  15.445  25.648  0.00  0.00    -0.360 OA
HETATM   21  H   UNL     1       6.419  14.740  25.539  0.00  0.00     0.217 HD
ENDBRANCH   4  20
BRANCH   1  22
HETATM   22  S   UNL     1       0.523  13.277  23.955  0.00  0.00     0.246 S 
HETATM   23  O   UNL     1       0.675  12.953  22.551  0.00  0.00    -0.206 OA
HETATM   24  O   UNL     1      -0.627  14.046  24.374  0.00  0.00    -0.206 OA
BRANCH  22  25
HETATM   25  N   UNL     1       0.581  11.795  24.868  0.00  0.00    -0.207 NA
HETATM   26  C   UNL     1       1.789  10.983  24.542  0.00  0.00     0.130 C 
BRANCH  25  27
HETATM   27  C   UNL     1      -0.682  10.964  24.984  0.00  0.00     0.065 C 
HETATM   28  C   UNL     1      -0.364   9.461  25.026  0.00  0.00     0.027 C 
HETATM   29  C   UNL     1      -1.490  11.252  26.252  0.00  0.00     0.027 C 
ENDBRANCH  25  27
ENDBRANCH  22  25
ENDBRANCH   1  22
BRANCH   6  30
HETATM   30  O   UNL     1       1.310  14.401  26.733  0.00  0.00    -0.359 OA
HETATM   31  H   UNL     1       1.526  13.651  27.314  0.00  0.00     0.217 HD
ENDBRANCH   6  30
TORSDOF 7
ENDMDL
MODEL 9
REMARK VINA RESULT:    -6.526      3.017      5.741
REMARK INTER + INTRA:         -11.306
REMARK INTER:                  -8.637
REMARK INTRA:                  -2.669
REMARK UNBOUND:                -2.491
REMARK  7 active torsions:
REMARK  status: ('A' for Active; 'I' for Inactive)
REMARK    1  A    between atoms: C_2  and  N_4 
REMARK    2  A    between atoms: N_4  and  S_6 
REMARK    3  A    between atoms: S_6  and  C_9 
REMARK    4  A    between atoms: C_11  and  C_12 
REMARK    5  A    between atoms: N_17  and  C_18 
REMARK    6  A    between atoms: C_25  and  O_26 
REMARK    7  A    between atoms: C_28  and  O_29 
ROOT
HETATM    1  C   UNL     1       6.480  14.731  24.967  0.00  0.00     0.108 C 
HETATM    2  C   UNL     1       6.628  14.828  23.569  0.00  0.00     0.041 C 
HETATM    3  C   UNL     1       7.893  14.838  22.963  0.00  0.00     0.023 C 
HETATM    4  C   UNL     1       9.003  14.946  23.811  0.00  0.00     0.078 C 
HETATM    5  C   UNL     1       8.858  14.979  25.201  0.00  0.00     0.075 C 
HETATM    6  C   UNL     1       7.600  14.829  25.783  0.00  0.00     0.091 C 
ENDROOT
BRANCH   3   7
HETATM    7  C   UNL     1       8.020  14.502  21.485  0.00  0.00     0.277 C 
HETATM    8  N   UNL     1       9.021  15.407  20.866  0.00  0.00    -0.156 NA
HETATM    9  N   UNL     1       9.829  14.746  20.165  0.00  0.00    -0.093 NA
HETATM   10  C   UNL     1       9.510  13.403  20.223  0.00  0.00     0.369 C 
HETATM   11  O   UNL     1      10.038  12.554  19.522  0.00  0.00    -0.243 OA
HETATM   12  N   UNL     1       8.491  13.202  21.141  0.00  0.00    -0.264 N 
BRANCH  12  13
HETATM   13  C   UNL     1       7.855  11.970  21.433  0.00  0.00     0.080 A 
HETATM   14  C   UNL     1       6.929  11.418  20.539  0.00  0.00     0.033 A 
HETATM   15  C   UNL     1       6.282  10.204  20.812  0.00  0.00     0.002 A 
HETATM   16  C   UNL     1       6.558   9.519  21.988  0.00  0.00     0.003 A 
HETATM   17  C   UNL     1       7.484  10.041  22.887  0.00  0.00     0.044 A 
HETATM   18  C   UNL     1       8.121  11.250  22.609  0.00  0.00     0.143 A 
HETATM   19  F   UNL     1       8.960  11.737  23.539  0.00  0.00    -0.204 F 
ENDBRANCH  12  13
ENDBRANCH   3   7
BRANCH   4  20
HETATM   20  O   UNL     1      10.291  14.972  23.360  0.00  0.00    -0.360 OA
HETATM   21  H   UNL     1      10.689  15.846  23.513  0.00  0.00     0.217 HD
ENDBRANCH   4  20
BRANCH   1  22
HETATM   22  S   UNL     1       4.849  14.361  25.593  0.00  0.00     0.246 S 
HETATM   23  O   UNL     1       4.418  15.519  26.350  0.00  0.00    -0.206 OA
HETATM   24  O   UNL     1       4.852  13.067  26.237  0.00  0.00    -0.206 OA
BRANCH  22  25
HETATM   25  N   UNL     1       3.893  14.271  24.139  0.00  0.00    -0.207 NA
HETATM   26  C   UNL     1       2.986  15.446  23.992  0.00  0.00     0.130 C 
BRANCH  25  27
HETATM   27  C   UNL     1       3.225  12.956  23.790  0.00  0.00     0.065 C 
HETATM   28  C   UNL     1       1.793  13.171  23.276  0.00  0.00     0.027 C 
HETATM   29  C   UNL     1       3.948  12.176  22.688  0.00  0.00     0.027 C 
ENDBRANCH  25  27
ENDBRANCH  22  25
ENDBRANCH   1  22
BRANCH   6  30
HETATM   30  O   UNL     1       7.511  14.719  27.137  0.00  0.00    -0.359 OA
HETATM   31  H   UNL     1       6.903  13.998  27.376  0.00  0.00     0.217 HD
ENDBRANCH   6  30
TORSDOF 7
ENDMDL
