MODEL 1
REMARK VINA RESULT:    -6.309      0.000      0.000
REMARK INTER + INTRA:          -9.174
REMARK INTER:                  -8.025
REMARK INTRA:                  -1.149
REMARK UNBOUND:                -1.021
REMARK  5 active torsions:
REMARK  status: ('A' for Active; 'I' for Inactive)
REMARK    1  A    between atoms: N8_1  and  C24_2 
REMARK    2  A    between atoms: N8_1  and  C7_8 
REMARK    3  A    between atoms: C2_13  and  N1_14 
REMARK    4  A    between atoms: N1_14  and  C17_15 
REMARK    5  A    between atoms: C14_16  and  C13_19 
ROOT
ATOM      1  C17 FTA A   1       8.707  13.408  12.340  1.00  0.00     0.142 C 
ATOM      2  C14 FTA A   1       8.995  13.349  11.024  1.00  0.00     0.158 C 
ATOM      3  C18 FTA A   1       9.688  14.445  10.381  1.00  0.00     0.069 C 
ATOM      4  N21 FTA A   1      10.197  15.423   9.985  1.00  0.00    -0.197 NA
ENDROOT
BRANCH   2   5
ATOM      5  C13 FTA A   1       8.611  12.147  10.248  1.00  0.00     0.197 A 
ATOM      6  N15 FTA A   1       7.742  11.142  10.666  1.00  0.00    -0.093 NA
ATOM      7  N19 FTA A   1       7.696  10.185   9.661  1.00  0.00    -0.231 N 
ATOM      8  N20 FTA A   1       8.528  10.576   8.622  1.00  0.00    -0.017 NA
ATOM      9  H15 FTA A   1       7.135   9.321   9.683  1.00  0.00     0.200 HD
ATOM     10  N16 FTA A   1       9.088  11.798   8.979  1.00  0.00    -0.090 NA
ENDBRANCH   2   5
BRANCH   1  11
ATOM     11  N1  FTA A   1       7.437  13.200  12.738  1.00  0.00    -0.389 N 
ATOM     12  H11 FTA A   1       7.249  12.365  13.312  1.00  0.00     0.159 HD
BRANCH  11  13
ATOM     13  C2  FTA A   1       6.336  14.045  12.428  1.00  0.00     0.028 A 
ATOM     14  C4  FTA A   1       6.306  15.388  12.796  1.00  0.00     0.031 A 
ATOM     15  C6  FTA A   1       5.107  16.101  12.667  1.00  0.00     0.031 A 
ATOM     16  C7  FTA A   1       3.942  15.509  12.186  1.00  0.00     0.032 A 
ATOM     17  C5  FTA A   1       3.995  14.181  11.802  1.00  0.00     0.031 A 
ATOM     18  C3  FTA A   1       5.170  13.453  11.934  1.00  0.00     0.031 A 
BRANCH  16  19
ATOM     19  N8  FTA A   1       2.675  16.145  12.244  1.00  0.00    -0.356 N 
ATOM     20  H1  FTA A   1       2.501  16.913  11.579  1.00  0.00     0.166 HD
BRANCH  19  21
ATOM     21  C24 FTA A   1       1.622  15.809  13.147  1.00  0.00     0.032 A 
ATOM     22  C26 FTA A   1       1.612  16.264  14.444  1.00  0.00     0.029 A 
ATOM     23  C28 FTA A   1       0.661  15.766  15.314  1.00  0.00     0.002 A 
ATOM     24  C30 FTA A   1      -0.299  14.850  14.919  1.00  0.00     0.000 A 
ATOM     25  C29 FTA A   1      -0.324  14.418  13.620  1.00  0.00     0.002 A 
ATOM     26  C27 FTA A   1       0.640  14.918  12.738  1.00  0.00     0.029 A 
ENDBRANCH  19  21
ENDBRANCH  16  19
ENDBRANCH  11  13
ENDBRANCH   1  11
TORSDOF 5
ENDMDL
MODEL 2
REMARK VINA RESULT:    -6.103      3.357      4.100
REMARK INTER + INTRA:          -8.907
REMARK INTER:                  -7.921
REMARK INTRA:                  -0.986
REMARK UNBOUND:                -1.021
REMARK  5 active torsions:
REMARK  status: ('A' for Active; 'I' for Inactive)
REMARK    1  A    between atoms: N8_1  and  C24_2 
REMARK    2  A    between atoms: N8_1  and  C7_8 
REMARK    3  A    between atoms: C2_13  and  N1_14 
REMARK    4  A    between atoms: N1_14  and  C17_15 
REMARK    5  A    between atoms: C14_16  and  C13_19 
ROOT
ATOM      1  C17 FTA A   1       8.994  12.797  11.036  1.00  0.00     0.142 C 
ATOM      2  C14 FTA A   1       8.684  11.747  10.249  1.00  0.00     0.158 C 
ATOM      3  C18 FTA A   1       9.729  10.877   9.752  1.00  0.00     0.069 C 
ATOM      4  N21 FTA A   1      10.676  10.297   9.379  1.00  0.00    -0.197 NA
ENDROOT
BRANCH   2   5
ATOM      5  C13 FTA A   1       7.267  11.484   9.910  1.00  0.00     0.197 A 
ATOM      6  N15 FTA A   1       6.159  12.143  10.440  1.00  0.00    -0.093 NA
ATOM      7  N19 FTA A   1       5.025  11.560   9.890  1.00  0.00    -0.231 N 
ATOM      8  N20 FTA A   1       5.407  10.544   9.027  1.00  0.00    -0.017 NA
ATOM      9  H15 FTA A   1       4.053  11.838  10.092  1.00  0.00     0.200 HD
ATOM     10  N16 FTA A   1       6.798  10.503   9.029  1.00  0.00    -0.090 NA
ENDBRANCH   2   5
BRANCH   1  11
ATOM     11  N1  FTA A   1       8.546  14.021  10.696  1.00  0.00    -0.389 N 
ATOM     12  H11 FTA A   1       8.604  14.290   9.703  1.00  0.00     0.159 HD
BRANCH  11  13
ATOM     13  C2  FTA A   1       7.998  14.969  11.603  1.00  0.00     0.028 A 
ATOM     14  C4  FTA A   1       8.214  16.337  11.464  1.00  0.00     0.031 A 
ATOM     15  C6  FTA A   1       7.846  17.194  12.510  1.00  0.00     0.031 A 
ATOM     16  C7  FTA A   1       7.271  16.720  13.687  1.00  0.00     0.032 A 
ATOM     17  C5  FTA A   1       7.040  15.360  13.799  1.00  0.00     0.031 A 
ATOM     18  C3  FTA A   1       7.411  14.493  12.778  1.00  0.00     0.031 A 
BRANCH  16  19
ATOM     19  N8  FTA A   1       7.084  17.533  14.834  1.00  0.00    -0.356 N 
ATOM     20  H1  FTA A   1       7.667  18.378  14.914  1.00  0.00     0.166 HD
BRANCH  19  21
ATOM     21  C24 FTA A   1       6.154  17.276  15.886  1.00  0.00     0.032 A 
ATOM     22  C26 FTA A   1       4.863  17.745  15.837  1.00  0.00     0.029 A 
ATOM     23  C28 FTA A   1       4.067  17.613  16.959  1.00  0.00     0.002 A 
ATOM     24  C30 FTA A   1       4.512  16.997  18.117  1.00  0.00     0.000 A 
ATOM     25  C29 FTA A   1       5.783  16.491  18.165  1.00  0.00     0.002 A 
ATOM     26  C27 FTA A   1       6.593  16.628  17.032  1.00  0.00     0.029 A 
ENDBRANCH  19  21
ENDBRANCH  16  19
ENDBRANCH  11  13
ENDBRANCH   1  11
TORSDOF 5
ENDMDL
MODEL 3
REMARK VINA RESULT:    -6.027      2.345      3.397
REMARK INTER + INTRA:          -8.809
REMARK INTER:                  -7.841
REMARK INTRA:                  -0.968
REMARK UNBOUND:                -1.021
REMARK  5 active torsions:
REMARK  status: ('A' for Active; 'I' for Inactive)
REMARK    1  A    between atoms: N8_1  and  C24_2 
REMARK    2  A    between atoms: N8_1  and  C7_8 
REMARK    3  A    between atoms: C2_13  and  N1_14 
REMARK    4  A    between atoms: N1_14  and  C17_15 
REMARK    5  A    between atoms: C14_16  and  C13_19 
ROOT
ATOM      1  C17 FTA A   1       6.042  14.003  11.895  1.00  0.00     0.142 C 
ATOM      2  C14 FTA A   1       6.872  13.077  11.375  1.00  0.00     0.158 C 
ATOM      3  C18 FTA A   1       8.267  13.052  11.759  1.00  0.00     0.069 C 
ATOM      4  N21 FTA A   1       9.376  13.188  12.114  1.00  0.00    -0.197 NA
ENDROOT
BRANCH   2   5
ATOM      5  C13 FTA A   1       6.340  12.077  10.421  1.00  0.00     0.197 A 
ATOM      6  N15 FTA A   1       7.086  11.134   9.717  1.00  0.00    -0.093 NA
ATOM      7  N19 FTA A   1       6.208  10.429   8.904  1.00  0.00    -0.231 N 
ATOM      8  N20 FTA A   1       4.924  10.920   9.087  1.00  0.00    -0.017 NA
ATOM      9  H15 FTA A   1       6.469   9.664   8.265  1.00  0.00     0.200 HD
ATOM     10  N16 FTA A   1       5.002  11.934  10.036  1.00  0.00    -0.090 NA
ENDBRANCH   2   5
BRANCH   1  11
ATOM     11  N1  FTA A   1       5.307  14.762  11.060  1.00  0.00    -0.389 N 
ATOM     12  H11 FTA A   1       5.727  15.015  10.154  1.00  0.00     0.159 HD
BRANCH  11  13
ATOM     13  C2  FTA A   1       3.997  15.240  11.333  1.00  0.00     0.028 A 
ATOM     14  C4  FTA A   1       3.185  14.663  12.306  1.00  0.00     0.031 A 
ATOM     15  C6  FTA A   1       1.833  15.026  12.367  1.00  0.00     0.031 A 
ATOM     16  C7  FTA A   1       1.273  15.945  11.483  1.00  0.00     0.032 A 
ATOM     17  C5  FTA A   1       2.098  16.528  10.538  1.00  0.00     0.031 A 
ATOM     18  C3  FTA A   1       3.438  16.172  10.453  1.00  0.00     0.031 A 
BRANCH  16  19
ATOM     19  N8  FTA A   1      -0.124  16.170  11.389  1.00  0.00    -0.356 N 
ATOM     20  H1  FTA A   1      -0.441  17.146  11.299  1.00  0.00     0.166 HD
BRANCH  19  21
ATOM     21  C24 FTA A   1      -1.128  15.155  11.410  1.00  0.00     0.032 A 
ATOM     22  C26 FTA A   1      -1.712  14.696  10.253  1.00  0.00     0.029 A 
ATOM     23  C28 FTA A   1      -2.794  13.842  10.351  1.00  0.00     0.002 A 
ATOM     24  C30 FTA A   1      -3.290  13.408  11.569  1.00  0.00     0.000 A 
ATOM     25  C29 FTA A   1      -2.693  13.828  12.728  1.00  0.00     0.002 A 
ATOM     26  C27 FTA A   1      -1.600  14.696  12.631  1.00  0.00     0.029 A 
ENDBRANCH  19  21
ENDBRANCH  16  19
ENDBRANCH  11  13
ENDBRANCH   1  11
TORSDOF 5
ENDMDL
MODEL 4
REMARK VINA RESULT:    -5.934      2.910      3.717
REMARK INTER + INTRA:          -8.690
REMARK INTER:                  -7.785
REMARK INTRA:                  -0.905
REMARK UNBOUND:                -1.021
REMARK  5 active torsions:
REMARK  status: ('A' for Active; 'I' for Inactive)
REMARK    1  A    between atoms: N8_1  and  C24_2 
REMARK    2  A    between atoms: N8_1  and  C7_8 
REMARK    3  A    between atoms: C2_13  and  N1_14 
REMARK    4  A    between atoms: N1_14  and  C17_15 
REMARK    5  A    between atoms: C14_16  and  C13_19 
ROOT
ATOM      1  C17 FTA A   1       7.548  13.185  11.978  1.00  0.00     0.142 C 
ATOM      2  C14 FTA A   1       7.928  12.422  10.933  1.00  0.00     0.158 C 
ATOM      3  C18 FTA A   1       9.326  12.330  10.570  1.00  0.00     0.069 C 
ATOM      4  N21 FTA A   1      10.477  12.396  10.357  1.00  0.00    -0.197 NA
ENDROOT
BRANCH   2   5
ATOM      5  C13 FTA A   1       6.906  11.668  10.172  1.00  0.00     0.197 A 
ATOM      6  N15 FTA A   1       7.131  10.539   9.388  1.00  0.00    -0.093 NA
ATOM      7  N19 FTA A   1       5.918  10.178   8.817  1.00  0.00    -0.231 N 
ATOM      8  N20 FTA A   1       4.937  11.067   9.232  1.00  0.00    -0.017 NA
ATOM      9  H15 FTA A   1       5.769   9.377   8.186  1.00  0.00     0.200 HD
ATOM     10  N16 FTA A   1       5.546  11.986  10.081  1.00  0.00    -0.090 NA
ENDBRANCH   2   5
BRANCH   1  11
ATOM     11  N1  FTA A   1       6.585  14.108  11.794  1.00  0.00    -0.389 N 
ATOM     12  H11 FTA A   1       5.923  13.958  11.019  1.00  0.00     0.159 HD
BRANCH  11  13
ATOM     13  C2  FTA A   1       6.412  15.275  12.588  1.00  0.00     0.028 A 
ATOM     14  C4  FTA A   1       7.388  15.717  13.478  1.00  0.00     0.031 A 
ATOM     15  C6  FTA A   1       7.067  16.730  14.391  1.00  0.00     0.031 A 
ATOM     16  C7  FTA A   1       5.801  17.308  14.440  1.00  0.00     0.032 A 
ATOM     17  C5  FTA A   1       4.850  16.875  13.533  1.00  0.00     0.031 A 
ATOM     18  C3  FTA A   1       5.145  15.862  12.628  1.00  0.00     0.031 A 
BRANCH  16  19
ATOM     19  N8  FTA A   1       5.391  18.177  15.483  1.00  0.00    -0.356 N 
ATOM     20  H1  FTA A   1       5.479  19.190  15.316  1.00  0.00     0.166 HD
BRANCH  19  21
ATOM     21  C24 FTA A   1       4.867  17.765  16.746  1.00  0.00     0.032 A 
ATOM     22  C26 FTA A   1       5.585  16.955  17.594  1.00  0.00     0.029 A 
ATOM     23  C28 FTA A   1       4.958  16.452  18.718  1.00  0.00     0.002 A 
ATOM     24  C30 FTA A   1       3.645  16.758  19.036  1.00  0.00     0.000 A 
ATOM     25  C29 FTA A   1       2.932  17.594  18.219  1.00  0.00     0.002 A 
ATOM     26  C27 FTA A   1       3.563  18.102  17.078  1.00  0.00     0.029 A 
ENDBRANCH  19  21
ENDBRANCH  16  19
ENDBRANCH  11  13
ENDBRANCH   1  11
TORSDOF 5
ENDMDL
MODEL 5
REMARK VINA RESULT:    -5.903      2.326      8.353
REMARK INTER + INTRA:          -8.649
REMARK INTER:                  -7.548
REMARK INTRA:                  -1.101
REMARK UNBOUND:                -1.021
REMARK  5 active torsions:
REMARK  status: ('A' for Active; 'I' for Inactive)
REMARK    1  A    between atoms: N8_1  and  C24_2 
REMARK    2  A    between atoms: N8_1  and  C7_8 
REMARK    3  A    between atoms: C2_13  and  N1_14 
REMARK    4  A    between atoms: N1_14  and  C17_15 
REMARK    5  A    between atoms: C14_16  and  C13_19 
ROOT
ATOM      1  C17 FTA A   1       2.673  17.632  13.484  1.00  0.00     0.142 C 
ATOM      2  C14 FTA A   1       2.341  17.263  14.737  1.00  0.00     0.158 C 
ATOM      3  C18 FTA A   1       3.189  17.626  15.852  1.00  0.00     0.069 C 
ATOM      4  N21 FTA A   1       3.995  17.939  16.644  1.00  0.00    -0.197 NA
ENDROOT
BRANCH   2   5
ATOM      5  C13 FTA A   1       1.093  16.498  14.964  1.00  0.00     0.197 A 
ATOM      6  N15 FTA A   1      -0.028  16.942  15.661  1.00  0.00    -0.093 NA
ATOM      7  N19 FTA A   1      -0.949  15.902  15.677  1.00  0.00    -0.231 N 
ATOM      8  N20 FTA A   1      -0.418  14.813  15.002  1.00  0.00    -0.017 NA
ATOM      9  H15 FTA A   1      -1.879  15.934  16.121  1.00  0.00     0.200 HD
ATOM     10  N16 FTA A   1       0.844  15.185  14.549  1.00  0.00    -0.090 NA
ENDBRANCH   2   5
BRANCH   1  11
ATOM     11  N1  FTA A   1       2.732  16.690  12.522  1.00  0.00    -0.389 N 
ATOM     12  H11 FTA A   1       1.926  16.609  11.886  1.00  0.00     0.159 HD
BRANCH  11  13
ATOM     13  C2  FTA A   1       3.823  15.802  12.317  1.00  0.00     0.028 A 
ATOM     14  C4  FTA A   1       3.638  14.485  11.903  1.00  0.00     0.031 A 
ATOM     15  C6  FTA A   1       4.724  13.601  11.942  1.00  0.00     0.031 A 
ATOM     16  C7  FTA A   1       5.984  13.995  12.386  1.00  0.00     0.032 A 
ATOM     17  C5  FTA A   1       6.157  15.313  12.770  1.00  0.00     0.031 A 
ATOM     18  C3  FTA A   1       5.090  16.202  12.751  1.00  0.00     0.031 A 
BRANCH  16  19
ATOM     19  N8  FTA A   1       7.036  13.077  12.632  1.00  0.00    -0.356 N 
ATOM     20  H1  FTA A   1       7.085  12.656  13.571  1.00  0.00     0.166 HD
BRANCH  19  21
ATOM     21  C24 FTA A   1       8.032  12.687  11.686  1.00  0.00     0.032 A 
ATOM     22  C26 FTA A   1       7.867  11.586  10.879  1.00  0.00     0.029 A 
ATOM     23  C28 FTA A   1       8.935  11.162  10.111  1.00  0.00     0.002 A 
ATOM     24  C30 FTA A   1      10.151  11.823  10.101  1.00  0.00     0.000 A 
ATOM     25  C29 FTA A   1      10.315  12.944  10.871  1.00  0.00     0.002 A 
ATOM     26  C27 FTA A   1       9.237  13.373  11.652  1.00  0.00     0.029 A 
ENDBRANCH  19  21
ENDBRANCH  16  19
ENDBRANCH  11  13
ENDBRANCH   1  11
TORSDOF 5
ENDMDL
MODEL 6
REMARK VINA RESULT:    -5.892      2.262      8.081
REMARK INTER + INTRA:          -8.634
REMARK INTER:                  -7.598
REMARK INTRA:                  -1.037
REMARK UNBOUND:                -1.021
REMARK  5 active torsions:
REMARK  status: ('A' for Active; 'I' for Inactive)
REMARK    1  A    between atoms: N8_1  and  C24_2 
REMARK    2  A    between atoms: N8_1  and  C7_8 
REMARK    3  A    between atoms: C2_13  and  N1_14 
REMARK    4  A    between atoms: N1_14  and  C17_15 
REMARK    5  A    between atoms: C14_16  and  C13_19 
ROOT
ATOM      1  C17 FTA A   1       2.996  16.253  10.818  1.00  0.00     0.142 C 
ATOM      2  C14 FTA A   1       1.684  16.402  11.086  1.00  0.00     0.158 C 
ATOM      3  C18 FTA A   1       0.884  17.329  10.315  1.00  0.00     0.069 C 
ATOM      4  N21 FTA A   1       0.377  18.152   9.652  1.00  0.00    -0.197 NA
ENDROOT
BRANCH   2   5
ATOM      5  C13 FTA A   1       1.066  15.598  12.166  1.00  0.00     0.197 A 
ATOM      6  N15 FTA A   1       1.592  15.389  13.439  1.00  0.00    -0.093 NA
ATOM      7  N19 FTA A   1       0.722  14.543  14.116  1.00  0.00    -0.231 N 
ATOM      8  N20 FTA A   1      -0.339  14.219  13.283  1.00  0.00    -0.017 NA
ATOM      9  H15 FTA A   1       0.846  14.209  15.083  1.00  0.00     0.200 HD
ATOM     10  N16 FTA A   1      -0.133  14.881  12.077  1.00  0.00    -0.090 NA
ENDBRANCH   2   5
BRANCH   1  11
ATOM     11  N1  FTA A   1       3.885  16.384  11.821  1.00  0.00    -0.389 N 
ATOM     12  H11 FTA A   1       3.879  17.268  12.350  1.00  0.00     0.159 HD
BRANCH  11  13
ATOM     13  C2  FTA A   1       4.831  15.395  12.206  1.00  0.00     0.028 A 
ATOM     14  C4  FTA A   1       6.023  15.719  12.849  1.00  0.00     0.031 A 
ATOM     15  C6  FTA A   1       7.008  14.733  12.993  1.00  0.00     0.031 A 
ATOM     16  C7  FTA A   1       6.835  13.438  12.511  1.00  0.00     0.032 A 
ATOM     17  C5  FTA A   1       5.636  13.125  11.897  1.00  0.00     0.031 A 
ATOM     18  C3  FTA A   1       4.651  14.092  11.733  1.00  0.00     0.031 A 
BRANCH  16  19
ATOM     19  N8  FTA A   1       7.889  12.490  12.457  1.00  0.00    -0.356 N 
ATOM     20  H1  FTA A   1       8.112  11.983  13.325  1.00  0.00     0.166 HD
BRANCH  19  21
ATOM     21  C24 FTA A   1       8.664  12.181  11.299  1.00  0.00     0.032 A 
ATOM     22  C26 FTA A   1       8.384  11.087  10.515  1.00  0.00     0.029 A 
ATOM     23  C28 FTA A   1       9.273  10.745   9.513  1.00  0.00     0.002 A 
ATOM     24  C30 FTA A   1      10.415  11.482   9.250  1.00  0.00     0.000 A 
ATOM     25  C29 FTA A   1      10.685  12.596   9.999  1.00  0.00     0.002 A 
ATOM     26  C27 FTA A   1       9.789  12.942  11.017  1.00  0.00     0.029 A 
ENDBRANCH  19  21
ENDBRANCH  16  19
ENDBRANCH  11  13
ENDBRANCH   1  11
TORSDOF 5
ENDMDL
MODEL 7
REMARK VINA RESULT:    -5.839     11.081     13.023
REMARK INTER + INTRA:          -8.567
REMARK INTER:                  -7.529
REMARK INTRA:                  -1.038
REMARK UNBOUND:                -1.021
REMARK  5 active torsions:
REMARK  status: ('A' for Active; 'I' for Inactive)
REMARK    1  A    between atoms: N8_1  and  C24_2 
REMARK    2  A    between atoms: N8_1  and  C7_8 
REMARK    3  A    between atoms: C2_13  and  N1_14 
REMARK    4  A    between atoms: N1_14  and  C17_15 
REMARK    5  A    between atoms: C14_16  and  C13_19 
ROOT
ATOM      1  C17 FTA A   1       7.713  18.879  18.926  1.00  0.00     0.142 C 
ATOM      2  C14 FTA A   1       6.398  18.940  19.213  1.00  0.00     0.158 C 
ATOM      3  C18 FTA A   1       5.762  20.220  19.441  1.00  0.00     0.069 C 
ATOM      4  N21 FTA A   1       5.397  21.313  19.657  1.00  0.00    -0.197 NA
ENDROOT
BRANCH   2   5
ATOM      5  C13 FTA A   1       5.607  17.690  19.277  1.00  0.00     0.197 A 
ATOM      6  N15 FTA A   1       5.691  16.617  18.392  1.00  0.00    -0.093 NA
ATOM      7  N19 FTA A   1       4.749  15.676  18.786  1.00  0.00    -0.231 N 
ATOM      8  N20 FTA A   1       4.076  16.145  19.904  1.00  0.00    -0.017 NA
ATOM      9  H15 FTA A   1       4.578  14.772  18.321  1.00  0.00     0.200 HD
ATOM     10  N16 FTA A   1       4.614  17.390  20.217  1.00  0.00    -0.090 NA
ENDBRANCH   2   5
BRANCH   1  11
ATOM     11  N1  FTA A   1       8.504  18.074  19.662  1.00  0.00    -0.389 N 
ATOM     12  H11 FTA A   1       8.604  17.095  19.356  1.00  0.00     0.159 HD
BRANCH  11  13
ATOM     13  C2  FTA A   1       9.211  18.473  20.829  1.00  0.00     0.028 A 
ATOM     14  C4  FTA A   1       9.242  17.691  21.981  1.00  0.00     0.031 A 
ATOM     15  C6  FTA A   1       9.757  18.240  23.162  1.00  0.00     0.031 A 
ATOM     16  C7  FTA A   1      10.238  19.546  23.223  1.00  0.00     0.032 A 
ATOM     17  C5  FTA A   1      10.224  20.301  22.064  1.00  0.00     0.031 A 
ATOM     18  C3  FTA A   1       9.705  19.779  20.886  1.00  0.00     0.031 A 
BRANCH  16  19
ATOM     19  N8  FTA A   1      10.567  20.189  24.444  1.00  0.00    -0.356 N 
ATOM     20  H1  FTA A   1      11.285  20.927  24.411  1.00  0.00     0.166 HD
BRANCH  19  21
ATOM     21  C24 FTA A   1       9.985  19.897  25.715  1.00  0.00     0.032 A 
ATOM     22  C26 FTA A   1       8.872  20.565  26.168  1.00  0.00     0.029 A 
ATOM     23  C28 FTA A   1       8.462  20.360  27.471  1.00  0.00     0.002 A 
ATOM     24  C30 FTA A   1       9.111  19.485  28.326  1.00  0.00     0.000 A 
ATOM     25  C29 FTA A   1      10.198  18.785  27.874  1.00  0.00     0.002 A 
ATOM     26  C27 FTA A   1      10.618  18.993  26.556  1.00  0.00     0.029 A 
ENDBRANCH  19  21
ENDBRANCH  16  19
ENDBRANCH  11  13
ENDBRANCH   1  11
TORSDOF 5
ENDMDL
MODEL 8
REMARK VINA RESULT:    -5.834     11.123     13.192
REMARK INTER + INTRA:          -8.560
REMARK INTER:                  -7.497
REMARK INTRA:                  -1.063
REMARK UNBOUND:                -1.021
REMARK  5 active torsions:
REMARK  status: ('A' for Active; 'I' for Inactive)
REMARK    1  A    between atoms: N8_1  and  C24_2 
REMARK    2  A    between atoms: N8_1  and  C7_8 
REMARK    3  A    between atoms: C2_13  and  N1_14 
REMARK    4  A    between atoms: N1_14  and  C17_15 
REMARK    5  A    between atoms: C14_16  and  C13_19 
ROOT
ATOM      1  C17 FTA A   1       5.463  19.014  20.571  1.00  0.00     0.142 C 
ATOM      2  C14 FTA A   1       5.017  18.332  19.498  1.00  0.00     0.158 C 
ATOM      3  C18 FTA A   1       3.602  18.295  19.195  1.00  0.00     0.069 C 
ATOM      4  N21 FTA A   1       2.433  18.305  19.106  1.00  0.00    -0.197 NA
ENDROOT
BRANCH   2   5
ATOM      5  C13 FTA A   1       5.988  17.634  18.624  1.00  0.00     0.197 A 
ATOM      6  N15 FTA A   1       7.336  17.950  18.476  1.00  0.00    -0.093 NA
ATOM      7  N19 FTA A   1       7.868  17.081  17.532  1.00  0.00    -0.231 N 
ATOM      8  N20 FTA A   1       6.870  16.228  17.085  1.00  0.00    -0.017 NA
ATOM      9  H15 FTA A   1       8.848  17.072  17.213  1.00  0.00     0.200 HD
ATOM     10  N16 FTA A   1       5.705  16.561  17.769  1.00  0.00    -0.090 NA
ENDBRANCH   2   5
BRANCH   1  11
ATOM     11  N1  FTA A   1       6.253  18.384  21.462  1.00  0.00    -0.389 N 
ATOM     12  H11 FTA A   1       5.947  17.459  21.798  1.00  0.00     0.159 HD
BRANCH  11  13
ATOM     13  C2  FTA A   1       7.476  18.897  21.973  1.00  0.00     0.028 A 
ATOM     14  C4  FTA A   1       8.583  18.084  22.200  1.00  0.00     0.031 A 
ATOM     15  C6  FTA A   1       9.672  18.602  22.915  1.00  0.00     0.031 A 
ATOM     16  C7  FTA A   1       9.681  19.904  23.409  1.00  0.00     0.032 A 
ATOM     17  C5  FTA A   1       8.583  20.707  23.154  1.00  0.00     0.031 A 
ATOM     18  C3  FTA A   1       7.489  20.208  22.458  1.00  0.00     0.031 A 
BRANCH  16  19
ATOM     19  N8  FTA A   1      10.670  20.379  24.308  1.00  0.00    -0.356 N 
ATOM     20  H1  FTA A   1      11.355  21.056  23.941  1.00  0.00     0.166 HD
BRANCH  19  21
ATOM     21  C24 FTA A   1      10.795  19.997  25.678  1.00  0.00     0.032 A 
ATOM     22  C26 FTA A   1      11.956  19.450  26.170  1.00  0.00     0.029 A 
ATOM     23  C28 FTA A   1      11.956  18.944  27.456  1.00  0.00     0.002 A 
ATOM     24  C30 FTA A   1      10.841  18.995  28.275  1.00  0.00     0.000 A 
ATOM     25  C29 FTA A   1       9.690  19.572  27.809  1.00  0.00     0.002 A 
ATOM     26  C27 FTA A   1       9.685  20.082  26.506  1.00  0.00     0.029 A 
ENDBRANCH  19  21
ENDBRANCH  16  19
ENDBRANCH  11  13
ENDBRANCH   1  11
TORSDOF 5
ENDMDL
MODEL 9
REMARK VINA RESULT:    -5.745     10.871     12.752
REMARK INTER + INTRA:          -8.445
REMARK INTER:                  -7.424
REMARK INTRA:                  -1.021
REMARK UNBOUND:                -1.021
REMARK  5 active torsions:
REMARK  status: ('A' for Active; 'I' for Inactive)
REMARK    1  A    between atoms: N8_1  and  C24_2 
REMARK    2  A    between atoms: N8_1  and  C7_8 
REMARK    3  A    between atoms: C2_13  and  N1_14 
REMARK    4  A    between atoms: N1_14  and  C17_15 
REMARK    5  A    between atoms: C14_16  and  C13_19 
ROOT
ATOM      1  C17 FTA A   1       7.430  18.748  18.778  1.00  0.00     0.142 C 
ATOM      2  C14 FTA A   1       6.297  18.315  18.190  1.00  0.00     0.158 C 
ATOM      3  C18 FTA A   1       5.927  18.801  16.878  1.00  0.00     0.069 C 
ATOM      4  N21 FTA A   1       5.725  19.322  15.847  1.00  0.00    -0.197 NA
ENDROOT
BRANCH   2   5
ATOM      5  C13 FTA A   1       5.446  17.325  18.890  1.00  0.00     0.197 A 
ATOM      6  N15 FTA A   1       5.082  17.358  20.234  1.00  0.00    -0.093 NA
ATOM      7  N19 FTA A   1       4.322  16.225  20.489  1.00  0.00    -0.231 N 
ATOM      8  N20 FTA A   1       4.207  15.482  19.323  1.00  0.00    -0.017 NA
ATOM      9  H15 FTA A   1       3.908  15.975  21.399  1.00  0.00     0.200 HD
ATOM     10  N16 FTA A   1       4.894  16.168  18.327  1.00  0.00    -0.090 NA
ENDBRANCH   2   5
BRANCH   1  11
ATOM     11  N1  FTA A   1       7.363  19.254  20.025  1.00  0.00    -0.389 N 
ATOM     12  H11 FTA A   1       6.520  19.790  20.277  1.00  0.00     0.159 HD
BRANCH  11  13
ATOM     13  C2  FTA A   1       8.368  19.105  21.020  1.00  0.00     0.028 A 
ATOM     14  C4  FTA A   1       8.428  17.989  21.851  1.00  0.00     0.031 A 
ATOM     15  C6  FTA A   1       9.292  18.009  22.954  1.00  0.00     0.031 A 
ATOM     16  C7  FTA A   1      10.092  19.110  23.248  1.00  0.00     0.032 A 
ATOM     17  C5  FTA A   1      10.039  20.201  22.399  1.00  0.00     0.031 A 
ATOM     18  C3  FTA A   1       9.179  20.206  21.307  1.00  0.00     0.031 A 
BRANCH  16  19
ATOM     19  N8  FTA A   1      10.811  19.236  24.464  1.00  0.00    -0.356 N 
ATOM     20  H1  FTA A   1      11.834  19.123  24.422  1.00  0.00     0.166 HD
BRANCH  19  21
ATOM     21  C24 FTA A   1      10.234  19.507  25.742  1.00  0.00     0.032 A 
ATOM     22  C26 FTA A   1      10.627  18.825  26.869  1.00  0.00     0.029 A 
ATOM     23  C28 FTA A   1       9.912  19.010  28.037  1.00  0.00     0.002 A 
ATOM     24  C30 FTA A   1       8.838  19.879  28.121  1.00  0.00     0.000 A 
ATOM     25  C29 FTA A   1       8.461  20.593  27.015  1.00  0.00     0.002 A 
ATOM     26  C27 FTA A   1       9.180  20.405  25.830  1.00  0.00     0.029 A 
ENDBRANCH  19  21
ENDBRANCH  16  19
ENDBRANCH  11  13
ENDBRANCH   1  11
TORSDOF 5
ENDMDL
