MODEL 1
REMARK VINA RESULT:    -4.945      0.000      0.000
REMARK INTER + INTRA:          -7.290
REMARK INTER:                  -6.338
REMARK INTRA:                  -0.952
REMARK UNBOUND:                -0.899
REMARK  5 active torsions:
REMARK  status: ('A' for Active; 'I' for Inactive)
REMARK    1  A    between atoms: N8_1  and  C24_2 
REMARK    2  A    between atoms: N8_1  and  C7_8 
REMARK    3  A    between atoms: C2_13  and  N1_14 
REMARK    4  A    between atoms: N1_14  and  C17_15 
REMARK    5  A    between atoms: C14_16  and  C13_19 
ROOT
ATOM      1  C17 FTA A   1       5.522  16.813  12.603  1.00  0.00     0.142 C 
ATOM      2  C14 FTA A   1       6.433  16.029  13.214  1.00  0.00     0.158 C 
ATOM      3  C18 FTA A   1       6.775  14.739  12.654  1.00  0.00     0.069 C 
ATOM      4  N21 FTA A   1       6.909  13.703  12.121  1.00  0.00    -0.197 NA
ENDROOT
BRANCH   2   5
ATOM      5  C13 FTA A   1       7.090  16.506  14.452  1.00  0.00     0.197 A 
ATOM      6  N15 FTA A   1       8.224  17.312  14.523  1.00  0.00    -0.093 NA
ATOM      7  N19 FTA A   1       8.531  17.483  15.866  1.00  0.00    -0.231 N 
ATOM      8  N20 FTA A   1       7.607  16.793  16.636  1.00  0.00    -0.017 NA
ATOM      9  H15 FTA A   1       9.321  18.035  16.233  1.00  0.00     0.200 HD
ATOM     10  N16 FTA A   1       6.706  16.195  15.762  1.00  0.00    -0.090 NA
ENDBRANCH   2   5
BRANCH   1  11
ATOM     11  N1  FTA A   1       4.483  17.284  13.319  1.00  0.00    -0.389 N 
ATOM     12  H11 FTA A   1       4.655  18.094  13.932  1.00  0.00     0.159 HD
BRANCH  11  13
ATOM     13  C2  FTA A   1       3.166  16.748  13.294  1.00  0.00     0.028 A 
ATOM     14  C4  FTA A   1       2.217  17.069  14.261  1.00  0.00     0.031 A 
ATOM     15  C6  FTA A   1       1.024  16.336  14.312  1.00  0.00     0.031 A 
ATOM     16  C7  FTA A   1       0.756  15.295  13.427  1.00  0.00     0.032 A 
ATOM     17  C5  FTA A   1       1.698  15.005  12.456  1.00  0.00     0.031 A 
ATOM     18  C3  FTA A   1       2.893  15.711  12.397  1.00  0.00     0.031 A 
BRANCH  16  19
ATOM     19  N8  FTA A   1      -0.340  14.409  13.589  1.00  0.00    -0.356 N 
ATOM     20  H1  FTA A   1      -0.156  13.511  14.058  1.00  0.00     0.166 HD
BRANCH  19  21
ATOM     21  C24 FTA A   1      -1.677  14.661  13.155  1.00  0.00     0.032 A 
ATOM     22  C26 FTA A   1      -1.965  15.649  12.244  1.00  0.00     0.029 A 
ATOM     23  C28 FTA A   1      -3.289  15.957  11.996  1.00  0.00     0.002 A 
ATOM     24  C30 FTA A   1      -4.334  15.286  12.608  1.00  0.00     0.000 A 
ATOM     25  C29 FTA A   1      -4.061  14.274  13.489  1.00  0.00     0.002 A 
ATOM     26  C27 FTA A   1      -2.721  13.963  13.744  1.00  0.00     0.029 A 
ENDBRANCH  19  21
ENDBRANCH  16  19
ENDBRANCH  11  13
ENDBRANCH   1  11
TORSDOF 5
ENDMDL
MODEL 2
REMARK VINA RESULT:    -4.883      2.211      3.800
REMARK INTER + INTRA:          -7.209
REMARK INTER:                  -6.282
REMARK INTRA:                  -0.927
REMARK UNBOUND:                -0.899
REMARK  5 active torsions:
REMARK  status: ('A' for Active; 'I' for Inactive)
REMARK    1  A    between atoms: N8_1  and  C24_2 
REMARK    2  A    between atoms: N8_1  and  C7_8 
REMARK    3  A    between atoms: C2_13  and  N1_14 
REMARK    4  A    between atoms: N1_14  and  C17_15 
REMARK    5  A    between atoms: C14_16  and  C13_19 
ROOT
ATOM      1  C17 FTA A   1       7.843  17.465  15.245  1.00  0.00     0.142 C 
ATOM      2  C14 FTA A   1       7.984  17.342  16.580  1.00  0.00     0.158 C 
ATOM      3  C18 FTA A   1       9.282  17.522  17.194  1.00  0.00     0.069 C 
ATOM      4  N21 FTA A   1      10.395  17.636  17.544  1.00  0.00    -0.197 NA
ENDROOT
BRANCH   2   5
ATOM      5  C13 FTA A   1       6.797  17.038  17.412  1.00  0.00     0.197 A 
ATOM      6  N15 FTA A   1       5.803  16.107  17.117  1.00  0.00    -0.093 NA
ATOM      7  N19 FTA A   1       4.857  16.171  18.132  1.00  0.00    -0.231 N 
ATOM      8  N20 FTA A   1       5.245  17.130  19.056  1.00  0.00    -0.017 NA
ATOM      9  H15 FTA A   1       4.003  15.597  18.189  1.00  0.00     0.200 HD
ATOM     10  N16 FTA A   1       6.453  17.661  18.617  1.00  0.00    -0.090 NA
ENDBRANCH   2   5
BRANCH   1  11
ATOM     11  N1  FTA A   1       7.256  16.467  14.557  1.00  0.00    -0.389 N 
ATOM     12  H11 FTA A   1       7.709  15.542  14.581  1.00  0.00     0.159 HD
BRANCH  11  13
ATOM     13  C2  FTA A   1       6.059  16.593  13.800  1.00  0.00     0.028 A 
ATOM     14  C4  FTA A   1       5.017  17.428  14.196  1.00  0.00     0.031 A 
ATOM     15  C6  FTA A   1       3.783  17.332  13.538  1.00  0.00     0.031 A 
ATOM     16  C7  FTA A   1       3.564  16.427  12.503  1.00  0.00     0.032 A 
ATOM     17  C5  FTA A   1       4.616  15.622  12.106  1.00  0.00     0.031 A 
ATOM     18  C3  FTA A   1       5.843  15.692  12.753  1.00  0.00     0.031 A 
BRANCH  16  19
ATOM     19  N8  FTA A   1       2.276  16.167  11.968  1.00  0.00    -0.356 N 
ATOM     20  H1  FTA A   1       2.196  16.093  10.943  1.00  0.00     0.166 HD
BRANCH  19  21
ATOM     21  C24 FTA A   1       1.082  15.999  12.732  1.00  0.00     0.032 A 
ATOM     22  C26 FTA A   1       0.256  17.059  13.021  1.00  0.00     0.029 A 
ATOM     23  C28 FTA A   1      -0.787  16.864  13.906  1.00  0.00     0.002 A 
ATOM     24  C30 FTA A   1      -1.049  15.635  14.486  1.00  0.00     0.000 A 
ATOM     25  C29 FTA A   1      -0.257  14.562  14.177  1.00  0.00     0.002 A 
ATOM     26  C27 FTA A   1       0.803  14.757  13.284  1.00  0.00     0.029 A 
ENDBRANCH  19  21
ENDBRANCH  16  19
ENDBRANCH  11  13
ENDBRANCH   1  11
TORSDOF 5
ENDMDL
MODEL 3
REMARK VINA RESULT:    -4.814      3.100      9.681
REMARK INTER + INTRA:          -7.120
REMARK INTER:                  -6.142
REMARK INTRA:                  -0.978
REMARK UNBOUND:                -0.899
REMARK  5 active torsions:
REMARK  status: ('A' for Active; 'I' for Inactive)
REMARK    1  A    between atoms: N8_1  and  C24_2 
REMARK    2  A    between atoms: N8_1  and  C7_8 
REMARK    3  A    between atoms: C2_13  and  N1_14 
REMARK    4  A    between atoms: N1_14  and  C17_15 
REMARK    5  A    between atoms: C14_16  and  C13_19 
ROOT
ATOM      1  C17 FTA A   1      -3.581  15.031  12.574  1.00  0.00     0.142 C 
ATOM      2  C14 FTA A   1      -4.829  14.660  12.921  1.00  0.00     0.158 C 
ATOM      3  C18 FTA A   1      -5.793  15.654  13.343  1.00  0.00     0.069 C 
ATOM      4  N21 FTA A   1      -6.445  16.554  13.717  1.00  0.00    -0.197 NA
ENDROOT
BRANCH   2   5
ATOM      5  C13 FTA A   1      -5.210  13.230  12.851  1.00  0.00     0.197 A 
ATOM      6  N15 FTA A   1      -4.533  12.232  12.153  1.00  0.00    -0.093 NA
ATOM      7  N19 FTA A   1      -5.248  11.053  12.313  1.00  0.00    -0.231 N 
ATOM      8  N20 FTA A   1      -6.364  11.299  13.100  1.00  0.00    -0.017 NA
ATOM      9  H15 FTA A   1      -4.991  10.139  11.912  1.00  0.00     0.200 HD
ATOM     10  N16 FTA A   1      -6.336  12.647  13.444  1.00  0.00    -0.090 NA
ENDBRANCH   2   5
BRANCH   1  11
ATOM     11  N1  FTA A   1      -2.533  14.424  13.165  1.00  0.00    -0.389 N 
ATOM     12  H11 FTA A   1      -2.725  13.576  13.719  1.00  0.00     0.159 HD
BRANCH  11  13
ATOM     13  C2  FTA A   1      -1.183  14.862  13.080  1.00  0.00     0.028 A 
ATOM     14  C4  FTA A   1      -0.279  14.682  14.124  1.00  0.00     0.031 A 
ATOM     15  C6  FTA A   1       0.959  15.336  14.071  1.00  0.00     0.031 A 
ATOM     16  C7  FTA A   1       1.315  16.163  13.009  1.00  0.00     0.032 A 
ATOM     17  C5  FTA A   1       0.415  16.311  11.968  1.00  0.00     0.031 A 
ATOM     18  C3  FTA A   1      -0.823  15.682  12.008  1.00  0.00     0.031 A 
BRANCH  16  19
ATOM     19  N8  FTA A   1       2.464  16.994  13.032  1.00  0.00    -0.356 N 
ATOM     20  H1  FTA A   1       2.312  18.007  13.138  1.00  0.00     0.166 HD
BRANCH  19  21
ATOM     21  C24 FTA A   1       3.813  16.542  12.920  1.00  0.00     0.032 A 
ATOM     22  C26 FTA A   1       4.170  15.548  12.039  1.00  0.00     0.029 A 
ATOM     23  C28 FTA A   1       5.452  15.037  12.101  1.00  0.00     0.002 A 
ATOM     24  C30 FTA A   1       6.398  15.510  12.995  1.00  0.00     0.000 A 
ATOM     25  C29 FTA A   1       6.067  16.526  13.851  1.00  0.00     0.002 A 
ATOM     26  C27 FTA A   1       4.768  17.043  13.793  1.00  0.00     0.029 A 
ENDBRANCH  19  21
ENDBRANCH  16  19
ENDBRANCH  11  13
ENDBRANCH   1  11
TORSDOF 5
ENDMDL
MODEL 4
REMARK VINA RESULT:    -4.748      0.769      1.516
REMARK INTER + INTRA:          -7.035
REMARK INTER:                  -6.036
REMARK INTRA:                  -0.999
REMARK UNBOUND:                -0.899
REMARK  5 active torsions:
REMARK  status: ('A' for Active; 'I' for Inactive)
REMARK    1  A    between atoms: N8_1  and  C24_2 
REMARK    2  A    between atoms: N8_1  and  C7_8 
REMARK    3  A    between atoms: C2_13  and  N1_14 
REMARK    4  A    between atoms: N1_14  and  C17_15 
REMARK    5  A    between atoms: C14_16  and  C13_19 
ROOT
ATOM      1  C17 FTA A   1       5.363  17.351  13.547  1.00  0.00     0.142 C 
ATOM      2  C14 FTA A   1       6.167  16.422  14.102  1.00  0.00     0.158 C 
ATOM      3  C18 FTA A   1       6.650  15.312  13.309  1.00  0.00     0.069 C 
ATOM      4  N21 FTA A   1       6.915  14.443  12.568  1.00  0.00    -0.197 NA
ENDROOT
BRANCH   2   5
ATOM      5  C13 FTA A   1       6.563  16.556  15.522  1.00  0.00     0.197 A 
ATOM      6  N15 FTA A   1       5.708  16.517  16.622  1.00  0.00    -0.093 NA
ATOM      7  N19 FTA A   1       6.479  16.728  17.758  1.00  0.00    -0.231 N 
ATOM      8  N20 FTA A   1       7.803  16.902  17.384  1.00  0.00    -0.017 NA
ATOM      9  H15 FTA A   1       6.124  16.752  18.725  1.00  0.00     0.200 HD
ATOM     10  N16 FTA A   1       7.859  16.785  15.998  1.00  0.00    -0.090 NA
ENDBRANCH   2   5
BRANCH   1  11
ATOM     11  N1  FTA A   1       4.192  17.642  14.148  1.00  0.00    -0.389 N 
ATOM     12  H11 FTA A   1       4.209  18.332  14.913  1.00  0.00     0.159 HD
BRANCH  11  13
ATOM     13  C2  FTA A   1       2.937  17.069  13.807  1.00  0.00     0.028 A 
ATOM     14  C4  FTA A   1       1.809  17.225  14.609  1.00  0.00     0.031 A 
ATOM     15  C6  FTA A   1       0.672  16.451  14.341  1.00  0.00     0.031 A 
ATOM     16  C7  FTA A   1       0.633  15.528  13.298  1.00  0.00     0.032 A 
ATOM     17  C5  FTA A   1       1.753  15.403  12.496  1.00  0.00     0.031 A 
ATOM     18  C3  FTA A   1       2.895  16.152  12.753  1.00  0.00     0.031 A 
BRANCH  16  19
ATOM     19  N8  FTA A   1      -0.420  14.592  13.138  1.00  0.00    -0.356 N 
ATOM     20  H1  FTA A   1      -0.163  13.595  13.099  1.00  0.00     0.166 HD
BRANCH  19  21
ATOM     21  C24 FTA A   1      -1.805  14.917  13.026  1.00  0.00     0.032 A 
ATOM     22  C26 FTA A   1      -2.780  14.118  13.574  1.00  0.00     0.029 A 
ATOM     23  C28 FTA A   1      -4.103  14.392  13.284  1.00  0.00     0.002 A 
ATOM     24  C30 FTA A   1      -4.483  15.460  12.489  1.00  0.00     0.000 A 
ATOM     25  C29 FTA A   1      -3.523  16.287  11.968  1.00  0.00     0.002 A 
ATOM     26  C27 FTA A   1      -2.182  16.009  12.257  1.00  0.00     0.029 A 
ENDBRANCH  19  21
ENDBRANCH  16  19
ENDBRANCH  11  13
ENDBRANCH   1  11
TORSDOF 5
ENDMDL
MODEL 5
REMARK VINA RESULT:    -4.589      2.823      9.254
REMARK INTER + INTRA:          -6.830
REMARK INTER:                  -5.915
REMARK INTRA:                  -0.916
REMARK UNBOUND:                -0.899
REMARK  5 active torsions:
REMARK  status: ('A' for Active; 'I' for Inactive)
REMARK    1  A    between atoms: N8_1  and  C24_2 
REMARK    2  A    between atoms: N8_1  and  C7_8 
REMARK    3  A    between atoms: C2_13  and  N1_14 
REMARK    4  A    between atoms: N1_14  and  C17_15 
REMARK    5  A    between atoms: C14_16  and  C13_19 
ROOT
ATOM      1  C17 FTA A   1      -2.607  16.115  12.714  1.00  0.00     0.142 C 
ATOM      2  C14 FTA A   1      -3.759  15.792  13.334  1.00  0.00     0.158 C 
ATOM      3  C18 FTA A   1      -4.444  16.769  14.152  1.00  0.00     0.069 C 
ATOM      4  N21 FTA A   1      -4.855  17.637  14.825  1.00  0.00    -0.197 NA
ENDROOT
BRANCH   2   5
ATOM      5  C13 FTA A   1      -4.325  14.435  13.157  1.00  0.00     0.197 A 
ATOM      6  N15 FTA A   1      -3.744  13.240  13.577  1.00  0.00    -0.093 NA
ATOM      7  N19 FTA A   1      -4.577  12.205  13.175  1.00  0.00    -0.231 N 
ATOM      8  N20 FTA A   1      -5.671  12.736  12.506  1.00  0.00    -0.017 NA
ATOM      9  H15 FTA A   1      -4.410  11.203  13.345  1.00  0.00     0.200 HD
ATOM     10  N16 FTA A   1      -5.522  14.119  12.504  1.00  0.00    -0.090 NA
ENDBRANCH   2   5
BRANCH   1  11
ATOM     11  N1  FTA A   1      -1.529  15.327  12.890  1.00  0.00    -0.389 N 
ATOM     12  H11 FTA A   1      -1.624  14.330  12.647  1.00  0.00     0.159 HD
BRANCH  11  13
ATOM     13  C2  FTA A   1      -0.271  15.766  13.384  1.00  0.00     0.028 A 
ATOM     14  C4  FTA A   1      -0.155  16.826  14.280  1.00  0.00     0.031 A 
ATOM     15  C6  FTA A   1       1.115  17.355  14.547  1.00  0.00     0.031 A 
ATOM     16  C7  FTA A   1       2.266  16.857  13.944  1.00  0.00     0.032 A 
ATOM     17  C5  FTA A   1       2.138  15.788  13.075  1.00  0.00     0.031 A 
ATOM     18  C3  FTA A   1       0.886  15.257  12.787  1.00  0.00     0.031 A 
BRANCH  16  19
ATOM     19  N8  FTA A   1       3.525  17.504  14.035  1.00  0.00    -0.356 N 
ATOM     20  H1  FTA A   1       3.746  18.210  13.318  1.00  0.00     0.166 HD
BRANCH  19  21
ATOM     21  C24 FTA A   1       4.510  17.258  15.038  1.00  0.00     0.032 A 
ATOM     22  C26 FTA A   1       5.780  16.844  14.714  1.00  0.00     0.029 A 
ATOM     23  C28 FTA A   1       6.631  16.457  15.732  1.00  0.00     0.002 A 
ATOM     24  C30 FTA A   1       6.262  16.503  17.066  1.00  0.00     0.000 A 
ATOM     25  C29 FTA A   1       5.012  16.950  17.404  1.00  0.00     0.002 A 
ATOM     26  C27 FTA A   1       4.148  17.339  16.375  1.00  0.00     0.029 A 
ENDBRANCH  19  21
ENDBRANCH  16  19
ENDBRANCH  11  13
ENDBRANCH   1  11
TORSDOF 5
ENDMDL
MODEL 6
REMARK VINA RESULT:    -4.518      2.902      9.161
REMARK INTER + INTRA:          -6.738
REMARK INTER:                  -5.731
REMARK INTRA:                  -1.007
REMARK UNBOUND:                -0.899
REMARK  5 active torsions:
REMARK  status: ('A' for Active; 'I' for Inactive)
REMARK    1  A    between atoms: N8_1  and  C24_2 
REMARK    2  A    between atoms: N8_1  and  C7_8 
REMARK    3  A    between atoms: C2_13  and  N1_14 
REMARK    4  A    between atoms: N1_14  and  C17_15 
REMARK    5  A    between atoms: C14_16  and  C13_19 
ROOT
ATOM      1  C17 FTA A   1      -2.433  14.213  13.499  1.00  0.00     0.142 C 
ATOM      2  C14 FTA A   1      -3.767  14.252  13.313  1.00  0.00     0.158 C 
ATOM      3  C18 FTA A   1      -4.474  13.074  12.858  1.00  0.00     0.069 C 
ATOM      4  N21 FTA A   1      -4.901  12.067  12.435  1.00  0.00    -0.197 NA
ENDROOT
BRANCH   2   5
ATOM      5  C13 FTA A   1      -4.505  15.506  13.592  1.00  0.00     0.197 A 
ATOM      6  N15 FTA A   1      -4.015  16.611  14.285  1.00  0.00    -0.093 NA
ATOM      7  N19 FTA A   1      -5.041  17.544  14.361  1.00  0.00    -0.231 N 
ATOM      8  N20 FTA A   1      -6.166  17.037  13.727  1.00  0.00    -0.017 NA
ATOM      9  H15 FTA A   1      -4.977  18.466  14.816  1.00  0.00     0.200 HD
ATOM     10  N16 FTA A   1      -5.832  15.777  13.240  1.00  0.00    -0.090 NA
ENDBRANCH   2   5
BRANCH   1  11
ATOM     11  N1  FTA A   1      -1.664  15.141  12.898  1.00  0.00    -0.389 N 
ATOM     12  H11 FTA A   1      -1.985  15.512  11.992  1.00  0.00     0.159 HD
BRANCH  11  13
ATOM     13  C2  FTA A   1      -0.442  15.648  13.419  1.00  0.00     0.028 A 
ATOM     14  C4  FTA A   1      -0.407  16.678  14.356  1.00  0.00     0.031 A 
ATOM     15  C6  FTA A   1       0.821  17.285  14.653  1.00  0.00     0.031 A 
ATOM     16  C7  FTA A   1       2.008  16.893  14.039  1.00  0.00     0.032 A 
ATOM     17  C5  FTA A   1       1.960  15.853  13.129  1.00  0.00     0.031 A 
ATOM     18  C3  FTA A   1       0.751  15.247  12.811  1.00  0.00     0.031 A 
BRANCH  16  19
ATOM     19  N8  FTA A   1       3.217  17.624  14.165  1.00  0.00    -0.356 N 
ATOM     20  H1  FTA A   1       3.260  18.548  13.711  1.00  0.00     0.166 HD
BRANCH  19  21
ATOM     21  C24 FTA A   1       4.379  17.186  14.869  1.00  0.00     0.032 A 
ATOM     22  C26 FTA A   1       4.460  17.257  16.240  1.00  0.00     0.029 A 
ATOM     23  C28 FTA A   1       5.671  16.980  16.846  1.00  0.00     0.002 A 
ATOM     24  C30 FTA A   1       6.793  16.604  16.128  1.00  0.00     0.000 A 
ATOM     25  C29 FTA A   1       6.714  16.492  14.765  1.00  0.00     0.002 A 
ATOM     26  C27 FTA A   1       5.491  16.776  14.148  1.00  0.00     0.029 A 
ENDBRANCH  19  21
ENDBRANCH  16  19
ENDBRANCH  11  13
ENDBRANCH   1  11
TORSDOF 5
ENDMDL
MODEL 7
REMARK VINA RESULT:    -4.428      1.901      2.789
REMARK INTER + INTRA:          -6.622
REMARK INTER:                  -5.668
REMARK INTRA:                  -0.954
REMARK UNBOUND:                -0.899
REMARK  5 active torsions:
REMARK  status: ('A' for Active; 'I' for Inactive)
REMARK    1  A    between atoms: N8_1  and  C24_2 
REMARK    2  A    between atoms: N8_1  and  C7_8 
REMARK    3  A    between atoms: C2_13  and  N1_14 
REMARK    4  A    between atoms: N1_14  and  C17_15 
REMARK    5  A    between atoms: C14_16  and  C13_19 
ROOT
ATOM      1  C17 FTA A   1       3.422  17.661  14.382  1.00  0.00     0.142 C 
ATOM      2  C14 FTA A   1       4.635  17.255  14.807  1.00  0.00     0.158 C 
ATOM      3  C18 FTA A   1       5.596  16.723  13.865  1.00  0.00     0.069 C 
ATOM      4  N21 FTA A   1       6.247  16.264  13.005  1.00  0.00    -0.197 NA
ENDROOT
BRANCH   2   5
ATOM      5  C13 FTA A   1       4.979  17.372  16.243  1.00  0.00     0.197 A 
ATOM      6  N15 FTA A   1       6.251  17.237  16.797  1.00  0.00    -0.093 NA
ATOM      7  N19 FTA A   1       6.123  17.374  18.173  1.00  0.00    -0.231 N 
ATOM      8  N20 FTA A   1       4.789  17.590  18.487  1.00  0.00    -0.017 NA
ATOM      9  H15 FTA A   1       6.896  17.323  18.852  1.00  0.00     0.200 HD
ATOM     10  N16 FTA A   1       4.080  17.600  17.291  1.00  0.00    -0.090 NA
ENDBRANCH   2   5
BRANCH   1  11
ATOM     11  N1  FTA A   1       2.322  17.170  14.984  1.00  0.00    -0.389 N 
ATOM     12  H11 FTA A   1       2.234  17.310  16.001  1.00  0.00     0.159 HD
BRANCH  11  13
ATOM     13  C2  FTA A   1       1.273  16.473  14.324  1.00  0.00     0.028 A 
ATOM     14  C4  FTA A   1       1.482  15.764  13.144  1.00  0.00     0.031 A 
ATOM     15  C6  FTA A   1       0.373  15.298  12.425  1.00  0.00     0.031 A 
ATOM     16  C7  FTA A   1      -0.933  15.521  12.853  1.00  0.00     0.032 A 
ATOM     17  C5  FTA A   1      -1.123  16.205  14.041  1.00  0.00     0.031 A 
ATOM     18  C3  FTA A   1      -0.037  16.687  14.761  1.00  0.00     0.031 A 
BRANCH  16  19
ATOM     19  N8  FTA A   1      -2.065  15.245  12.045  1.00  0.00    -0.356 N 
ATOM     20  H1  FTA A   1      -1.981  15.430  11.035  1.00  0.00     0.166 HD
BRANCH  19  21
ATOM     21  C24 FTA A   1      -3.312  14.732  12.516  1.00  0.00     0.032 A 
ATOM     22  C26 FTA A   1      -3.400  13.507  13.132  1.00  0.00     0.029 A 
ATOM     23  C28 FTA A   1      -4.653  12.993  13.408  1.00  0.00     0.002 A 
ATOM     24  C30 FTA A   1      -5.819  13.680  13.114  1.00  0.00     0.000 A 
ATOM     25  C29 FTA A   1      -5.743  14.918  12.535  1.00  0.00     0.002 A 
ATOM     26  C27 FTA A   1      -4.476  15.440  12.251  1.00  0.00     0.029 A 
ENDBRANCH  19  21
ENDBRANCH  16  19
ENDBRANCH  11  13
ENDBRANCH   1  11
TORSDOF 5
ENDMDL
MODEL 8
REMARK VINA RESULT:    -4.359      1.319      2.672
REMARK INTER + INTRA:          -6.532
REMARK INTER:                  -5.593
REMARK INTRA:                  -0.939
REMARK UNBOUND:                -0.899
REMARK  5 active torsions:
REMARK  status: ('A' for Active; 'I' for Inactive)
REMARK    1  A    between atoms: N8_1  and  C24_2 
REMARK    2  A    between atoms: N8_1  and  C7_8 
REMARK    3  A    between atoms: C2_13  and  N1_14 
REMARK    4  A    between atoms: N1_14  and  C17_15 
REMARK    5  A    between atoms: C14_16  and  C13_19 
ROOT
ATOM      1  C17 FTA A   1       5.506  16.834  15.725  1.00  0.00     0.142 C 
ATOM      2  C14 FTA A   1       6.828  16.713  15.490  1.00  0.00     0.158 C 
ATOM      3  C18 FTA A   1       7.779  16.907  16.563  1.00  0.00     0.069 C 
ATOM      4  N21 FTA A   1       8.431  17.147  17.507  1.00  0.00    -0.197 NA
ENDROOT
BRANCH   2   5
ATOM      5  C13 FTA A   1       7.295  16.364  14.129  1.00  0.00     0.197 A 
ATOM      6  N15 FTA A   1       8.269  17.038  13.395  1.00  0.00    -0.093 NA
ATOM      7  N19 FTA A   1       8.369  16.413  12.159  1.00  0.00    -0.231 N 
ATOM      8  N20 FTA A   1       7.470  15.359  12.108  1.00  0.00    -0.017 NA
ATOM      9  H15 FTA A   1       9.009  16.689  11.401  1.00  0.00     0.200 HD
ATOM     10  N16 FTA A   1       6.810  15.319  13.333  1.00  0.00    -0.090 NA
ENDBRANCH   2   5
BRANCH   1  11
ATOM     11  N1  FTA A   1       4.779  17.661  14.949  1.00  0.00    -0.389 N 
ATOM     12  H11 FTA A   1       5.114  18.629  14.840  1.00  0.00     0.159 HD
BRANCH  11  13
ATOM     13  C2  FTA A   1       3.585  17.299  14.267  1.00  0.00     0.028 A 
ATOM     14  C4  FTA A   1       2.343  17.297  14.898  1.00  0.00     0.031 A 
ATOM     15  C6  FTA A   1       1.250  16.714  14.244  1.00  0.00     0.031 A 
ATOM     16  C7  FTA A   1       1.365  16.132  12.984  1.00  0.00     0.032 A 
ATOM     17  C5  FTA A   1       2.599  16.164  12.361  1.00  0.00     0.031 A 
ATOM     18  C3  FTA A   1       3.699  16.726  12.997  1.00  0.00     0.031 A 
BRANCH  16  19
ATOM     19  N8  FTA A   1       0.332  15.357  12.397  1.00  0.00    -0.356 N 
ATOM     20  H1  FTA A   1       0.588  14.754  11.602  1.00  0.00     0.166 HD
BRANCH  19  21
ATOM     21  C24 FTA A   1      -1.032  15.343  12.817  1.00  0.00     0.032 A 
ATOM     22  C26 FTA A   1      -1.526  14.350  13.630  1.00  0.00     0.029 A 
ATOM     23  C28 FTA A   1      -2.888  14.297  13.859  1.00  0.00     0.002 A 
ATOM     24  C30 FTA A   1      -3.767  15.225  13.327  1.00  0.00     0.000 A 
ATOM     25  C29 FTA A   1      -3.283  16.242  12.547  1.00  0.00     0.002 A 
ATOM     26  C27 FTA A   1      -1.904  16.295  12.310  1.00  0.00     0.029 A 
ENDBRANCH  19  21
ENDBRANCH  16  19
ENDBRANCH  11  13
ENDBRANCH   1  11
TORSDOF 5
ENDMDL
MODEL 9
REMARK VINA RESULT:    -4.183      1.726      2.914
REMARK INTER + INTRA:          -6.306
REMARK INTER:                  -5.406
REMARK INTRA:                  -0.899
REMARK UNBOUND:                -0.899
REMARK  5 active torsions:
REMARK  status: ('A' for Active; 'I' for Inactive)
REMARK    1  A    between atoms: N8_1  and  C24_2 
REMARK    2  A    between atoms: N8_1  and  C7_8 
REMARK    3  A    between atoms: C2_13  and  N1_14 
REMARK    4  A    between atoms: N1_14  and  C17_15 
REMARK    5  A    between atoms: C14_16  and  C13_19 
ROOT
ATOM      1  C17 FTA A   1       4.016  16.927  16.337  1.00  0.00     0.142 C 
ATOM      2  C14 FTA A   1       5.276  17.141  16.765  1.00  0.00     0.158 C 
ATOM      3  C18 FTA A   1       5.534  17.404  18.164  1.00  0.00     0.069 C 
ATOM      4  N21 FTA A   1       5.585  17.660  19.307  1.00  0.00    -0.197 NA
ENDROOT
BRANCH   2   5
ATOM      5  C13 FTA A   1       6.393  17.090  15.795  1.00  0.00     0.197 A 
ATOM      6  N15 FTA A   1       7.718  17.439  16.047  1.00  0.00    -0.093 NA
ATOM      7  N19 FTA A   1       8.423  17.289  14.860  1.00  0.00    -0.231 N 
ATOM      8  N20 FTA A   1       7.557  16.854  13.868  1.00  0.00    -0.017 NA
ATOM      9  H15 FTA A   1       9.430  17.472  14.736  1.00  0.00     0.200 HD
ATOM     10  N16 FTA A   1       6.300  16.720  14.448  1.00  0.00    -0.090 NA
ENDBRANCH   2   5
BRANCH   1  11
ATOM     11  N1  FTA A   1       3.543  17.661  15.311  1.00  0.00    -0.389 N 
ATOM     12  H11 FTA A   1       4.026  18.545  15.096  1.00  0.00     0.159 HD
BRANCH  11  13
ATOM     13  C2  FTA A   1       2.427  17.309  14.504  1.00  0.00     0.028 A 
ATOM     14  C4  FTA A   1       1.116  17.419  14.962  1.00  0.00     0.031 A 
ATOM     15  C6  FTA A   1       0.083  16.844  14.211  1.00  0.00     0.031 A 
ATOM     16  C7  FTA A   1       0.324  16.162  13.021  1.00  0.00     0.032 A 
ATOM     17  C5  FTA A   1       1.628  16.083  12.566  1.00  0.00     0.031 A 
ATOM     18  C3  FTA A   1       2.669  16.635  13.303  1.00  0.00     0.031 A 
BRANCH  16  19
ATOM     19  N8  FTA A   1      -0.669  15.397  12.357  1.00  0.00    -0.356 N 
ATOM     20  H1  FTA A   1      -0.387  14.896  11.502  1.00  0.00     0.166 HD
BRANCH  19  21
ATOM     21  C24 FTA A   1      -2.028  15.265  12.775  1.00  0.00     0.032 A 
ATOM     22  C26 FTA A   1      -2.525  14.071  13.243  1.00  0.00     0.029 A 
ATOM     23  C28 FTA A   1      -3.884  13.963  13.467  1.00  0.00     0.002 A 
ATOM     24  C30 FTA A   1      -4.757  15.020  13.270  1.00  0.00     0.000 A 
ATOM     25  C29 FTA A   1      -4.268  16.225  12.841  1.00  0.00     0.002 A 
ATOM     26  C27 FTA A   1      -2.893  16.337  12.609  1.00  0.00     0.029 A 
ENDBRANCH  19  21
ENDBRANCH  16  19
ENDBRANCH  11  13
ENDBRANCH   1  11
TORSDOF 5
ENDMDL
