MODEL 1
REMARK VINA RESULT:    -5.695      0.000      0.000
REMARK INTER + INTRA:          -8.266
REMARK INTER:                  -7.413
REMARK INTRA:                  -0.852
REMARK UNBOUND:                -0.906
REMARK  5 active torsions:
REMARK  status: ('A' for Active; 'I' for Inactive)
REMARK    1  A    between atoms: N8_1  and  C24_2 
REMARK    2  A    between atoms: N8_1  and  C7_8 
REMARK    3  A    between atoms: C2_13  and  N1_14 
REMARK    4  A    between atoms: N1_14  and  C17_15 
REMARK    5  A    between atoms: C14_16  and  C13_19 
ROOT
ATOM      1  C17 FTA A   1       5.514  16.207  16.679  1.00  0.00     0.142 C 
ATOM      2  C14 FTA A   1       6.288  16.655  17.688  1.00  0.00     0.158 C 
ATOM      3  C18 FTA A   1       5.691  17.030  18.952  1.00  0.00     0.069 C 
ATOM      4  N21 FTA A   1       5.068  17.349  19.892  1.00  0.00    -0.197 NA
ENDROOT
BRANCH   2   5
ATOM      5  C13 FTA A   1       7.754  16.746  17.496  1.00  0.00     0.197 A 
ATOM      6  N15 FTA A   1       8.710  16.852  18.504  1.00  0.00    -0.093 NA
ATOM      7  N19 FTA A   1       9.952  16.957  17.891  1.00  0.00    -0.231 N 
ATOM      8  N20 FTA A   1       9.786  16.922  16.515  1.00  0.00    -0.017 NA
ATOM      9  H15 FTA A   1      10.854  17.048  18.381  1.00  0.00     0.200 HD
ATOM     10  N16 FTA A   1       8.424  16.780  16.267  1.00  0.00    -0.090 NA
ENDBRANCH   2   5
BRANCH   1  11
ATOM     11  N1  FTA A   1       5.612  16.796  15.472  1.00  0.00    -0.389 N 
ATOM     12  H11 FTA A   1       6.540  17.138  15.183  1.00  0.00     0.159 HD
BRANCH  11  13
ATOM     13  C2  FTA A   1       4.533  16.981  14.566  1.00  0.00     0.028 A 
ATOM     14  C4  FTA A   1       3.425  17.764  14.882  1.00  0.00     0.031 A 
ATOM     15  C6  FTA A   1       2.300  17.720  14.048  1.00  0.00     0.031 A 
ATOM     16  C7  FTA A   1       2.253  16.916  12.912  1.00  0.00     0.032 A 
ATOM     17  C5  FTA A   1       3.371  16.163  12.597  1.00  0.00     0.031 A 
ATOM     18  C3  FTA A   1       4.491  16.183  13.419  1.00  0.00     0.031 A 
BRANCH  16  19
ATOM     19  N8  FTA A   1       1.062  16.695  12.174  1.00  0.00    -0.356 N 
ATOM     20  H1  FTA A   1       0.953  17.208  11.287  1.00  0.00     0.166 HD
BRANCH  19  21
ATOM     21  C24 FTA A   1       0.001  15.820  12.560  1.00  0.00     0.032 A 
ATOM     22  C26 FTA A   1      -1.198  15.802  11.887  1.00  0.00     0.029 A 
ATOM     23  C28 FTA A   1      -2.241  15.063  12.413  1.00  0.00     0.002 A 
ATOM     24  C30 FTA A   1      -2.112  14.316  13.572  1.00  0.00     0.000 A 
ATOM     25  C29 FTA A   1      -0.911  14.296  14.230  1.00  0.00     0.002 A 
ATOM     26  C27 FTA A   1       0.145  15.047  13.702  1.00  0.00     0.029 A 
ENDBRANCH  19  21
ENDBRANCH  16  19
ENDBRANCH  11  13
ENDBRANCH   1  11
TORSDOF 5
ENDMDL
MODEL 2
REMARK VINA RESULT:    -5.694      0.893      2.513
REMARK INTER + INTRA:          -8.264
REMARK INTER:                  -7.284
REMARK INTRA:                  -0.980
REMARK UNBOUND:                -0.906
REMARK  5 active torsions:
REMARK  status: ('A' for Active; 'I' for Inactive)
REMARK    1  A    between atoms: N8_1  and  C24_2 
REMARK    2  A    between atoms: N8_1  and  C7_8 
REMARK    3  A    between atoms: C2_13  and  N1_14 
REMARK    4  A    between atoms: N1_14  and  C17_15 
REMARK    5  A    between atoms: C14_16  and  C13_19 
ROOT
ATOM      1  C17 FTA A   1       7.064  17.192  15.885  1.00  0.00     0.142 C 
ATOM      2  C14 FTA A   1       7.492  17.067  17.157  1.00  0.00     0.158 C 
ATOM      3  C18 FTA A   1       8.909  17.036  17.448  1.00  0.00     0.069 C 
ATOM      4  N21 FTA A   1      10.076  16.967  17.528  1.00  0.00    -0.197 NA
ENDROOT
BRANCH   2   5
ATOM      5  C13 FTA A   1       6.500  16.978  18.253  1.00  0.00     0.197 A 
ATOM      6  N15 FTA A   1       5.329  16.222  18.243  1.00  0.00    -0.093 NA
ATOM      7  N19 FTA A   1       4.669  16.458  19.442  1.00  0.00    -0.231 N 
ATOM      8  N20 FTA A   1       5.410  17.354  20.200  1.00  0.00    -0.017 NA
ATOM      9  H15 FTA A   1       3.773  16.036  19.724  1.00  0.00     0.200 HD
ATOM     10  N16 FTA A   1       6.550  17.669  19.469  1.00  0.00    -0.090 NA
ENDBRANCH   2   5
BRANCH   1  11
ATOM     11  N1  FTA A   1       6.181  16.296  15.403  1.00  0.00    -0.389 N 
ATOM     12  H11 FTA A   1       6.323  15.306  15.654  1.00  0.00     0.159 HD
BRANCH  11  13
ATOM     13  C2  FTA A   1       5.068  16.611  14.577  1.00  0.00     0.028 A 
ATOM     14  C4  FTA A   1       4.023  17.418  15.018  1.00  0.00     0.031 A 
ATOM     15  C6  FTA A   1       2.856  17.501  14.246  1.00  0.00     0.031 A 
ATOM     16  C7  FTA A   1       2.707  16.801  13.052  1.00  0.00     0.032 A 
ATOM     17  C5  FTA A   1       3.764  16.023  12.615  1.00  0.00     0.031 A 
ATOM     18  C3  FTA A   1       4.924  15.917  13.372  1.00  0.00     0.031 A 
BRANCH  16  19
ATOM     19  N8  FTA A   1       1.469  16.703  12.366  1.00  0.00    -0.356 N 
ATOM     20  H1  FTA A   1       1.340  17.300  11.536  1.00  0.00     0.166 HD
BRANCH  19  21
ATOM     21  C24 FTA A   1       0.387  15.846  12.732  1.00  0.00     0.032 A 
ATOM     22  C26 FTA A   1      -0.828  15.907  12.091  1.00  0.00     0.029 A 
ATOM     23  C28 FTA A   1      -1.884  15.177  12.603  1.00  0.00     0.002 A 
ATOM     24  C30 FTA A   1      -1.754  14.363  13.716  1.00  0.00     0.000 A 
ATOM     25  C29 FTA A   1      -0.539  14.264  14.340  1.00  0.00     0.002 A 
ATOM     26  C27 FTA A   1       0.531  15.006  13.826  1.00  0.00     0.029 A 
ENDBRANCH  19  21
ENDBRANCH  16  19
ENDBRANCH  11  13
ENDBRANCH   1  11
TORSDOF 5
ENDMDL
MODEL 3
REMARK VINA RESULT:    -5.681      2.191      3.795
REMARK INTER + INTRA:          -8.248
REMARK INTER:                  -7.132
REMARK INTRA:                  -1.115
REMARK UNBOUND:                -0.906
REMARK  5 active torsions:
REMARK  status: ('A' for Active; 'I' for Inactive)
REMARK    1  A    between atoms: N8_1  and  C24_2 
REMARK    2  A    between atoms: N8_1  and  C7_8 
REMARK    3  A    between atoms: C2_13  and  N1_14 
REMARK    4  A    between atoms: N1_14  and  C17_15 
REMARK    5  A    between atoms: C14_16  and  C13_19 
ROOT
ATOM      1  C17 FTA A   1       4.226  17.913  15.374  1.00  0.00     0.142 C 
ATOM      2  C14 FTA A   1       4.863  17.043  16.182  1.00  0.00     0.158 C 
ATOM      3  C18 FTA A   1       5.866  16.150  15.643  1.00  0.00     0.069 C 
ATOM      4  N21 FTA A   1       6.608  15.453  15.061  1.00  0.00    -0.197 NA
ENDROOT
BRANCH   2   5
ATOM      5  C13 FTA A   1       4.539  17.020  17.627  1.00  0.00     0.197 A 
ATOM      6  N15 FTA A   1       5.109  16.184  18.584  1.00  0.00    -0.093 NA
ATOM      7  N19 FTA A   1       4.492  16.456  19.798  1.00  0.00    -0.231 N 
ATOM      8  N20 FTA A   1       3.542  17.450  19.613  1.00  0.00    -0.017 NA
ATOM      9  H15 FTA A   1       4.706  15.994  20.694  1.00  0.00     0.200 HD
ATOM     10  N16 FTA A   1       3.578  17.809  18.269  1.00  0.00    -0.090 NA
ENDBRANCH   2   5
BRANCH   1  11
ATOM     11  N1  FTA A   1       2.879  17.931  15.369  1.00  0.00    -0.389 N 
ATOM     12  H11 FTA A   1       2.413  18.781  15.719  1.00  0.00     0.159 HD
BRANCH  11  13
ATOM     13  C2  FTA A   1       2.051  16.868  14.916  1.00  0.00     0.028 A 
ATOM     14  C4  FTA A   1       2.013  16.475  13.581  1.00  0.00     0.031 A 
ATOM     15  C6  FTA A   1       1.015  15.585  13.162  1.00  0.00     0.031 A 
ATOM     16  C7  FTA A   1       0.058  15.081  14.039  1.00  0.00     0.032 A 
ATOM     17  C5  FTA A   1       0.125  15.461  15.367  1.00  0.00     0.031 A 
ATOM     18  C3  FTA A   1       1.098  16.353  15.800  1.00  0.00     0.031 A 
BRANCH  16  19
ATOM     19  N8  FTA A   1      -1.077  14.351  13.602  1.00  0.00    -0.356 N 
ATOM     20  H1  FTA A   1      -0.928  13.372  13.317  1.00  0.00     0.166 HD
BRANCH  19  21
ATOM     21  C24 FTA A   1      -2.408  14.861  13.525  1.00  0.00     0.032 A 
ATOM     22  C26 FTA A   1      -2.660  16.212  13.475  1.00  0.00     0.029 A 
ATOM     23  C28 FTA A   1      -3.969  16.645  13.575  1.00  0.00     0.002 A 
ATOM     24  C30 FTA A   1      -5.035  15.769  13.693  1.00  0.00     0.000 A 
ATOM     25  C29 FTA A   1      -4.800  14.420  13.705  1.00  0.00     0.002 A 
ATOM     26  C27 FTA A   1      -3.475  13.978  13.607  1.00  0.00     0.029 A 
ENDBRANCH  19  21
ENDBRANCH  16  19
ENDBRANCH  11  13
ENDBRANCH   1  11
TORSDOF 5
ENDMDL
MODEL 4
REMARK VINA RESULT:    -5.629      1.937      3.283
REMARK INTER + INTRA:          -8.180
REMARK INTER:                  -7.094
REMARK INTRA:                  -1.087
REMARK UNBOUND:                -0.906
REMARK  5 active torsions:
REMARK  status: ('A' for Active; 'I' for Inactive)
REMARK    1  A    between atoms: N8_1  and  C24_2 
REMARK    2  A    between atoms: N8_1  and  C7_8 
REMARK    3  A    between atoms: C2_13  and  N1_14 
REMARK    4  A    between atoms: N1_14  and  C17_15 
REMARK    5  A    between atoms: C14_16  and  C13_19 
ROOT
ATOM      1  C17 FTA A   1       5.250  17.296  14.072  1.00  0.00     0.142 C 
ATOM      2  C14 FTA A   1       5.859  16.215  14.599  1.00  0.00     0.158 C 
ATOM      3  C18 FTA A   1       6.135  15.060  13.773  1.00  0.00     0.069 C 
ATOM      4  N21 FTA A   1       6.241  14.181  13.004  1.00  0.00    -0.197 NA
ENDROOT
BRANCH   2   5
ATOM      5  C13 FTA A   1       6.258  16.228  16.025  1.00  0.00     0.197 A 
ATOM      6  N15 FTA A   1       5.396  16.250  17.120  1.00  0.00    -0.093 NA
ATOM      7  N19 FTA A   1       6.178  16.302  18.266  1.00  0.00    -0.231 N 
ATOM      8  N20 FTA A   1       7.517  16.315  17.904  1.00  0.00    -0.017 NA
ATOM      9  H15 FTA A   1       5.821  16.327  19.232  1.00  0.00     0.200 HD
ATOM     10  N16 FTA A   1       7.569  16.258  16.515  1.00  0.00    -0.090 NA
ENDBRANCH   2   5
BRANCH   1  11
ATOM     11  N1  FTA A   1       4.149  17.782  14.676  1.00  0.00    -0.389 N 
ATOM     12  H11 FTA A   1       4.251  18.645  15.230  1.00  0.00     0.159 HD
BRANCH  11  13
ATOM     13  C2  FTA A   1       2.855  17.196  14.607  1.00  0.00     0.028 A 
ATOM     14  C4  FTA A   1       2.063  17.014  15.737  1.00  0.00     0.031 A 
ATOM     15  C6  FTA A   1       0.907  16.228  15.638  1.00  0.00     0.031 A 
ATOM     16  C7  FTA A   1       0.526  15.620  14.444  1.00  0.00     0.032 A 
ATOM     17  C5  FTA A   1       1.310  15.831  13.324  1.00  0.00     0.031 A 
ATOM     18  C3  FTA A   1       2.467  16.596  13.405  1.00  0.00     0.031 A 
BRANCH  16  19
ATOM     19  N8  FTA A   1      -0.514  14.658  14.369  1.00  0.00    -0.356 N 
ATOM     20  H1  FTA A   1      -0.245  13.666  14.439  1.00  0.00     0.166 HD
BRANCH  19  21
ATOM     21  C24 FTA A   1      -1.901  14.951  14.203  1.00  0.00     0.032 A 
ATOM     22  C26 FTA A   1      -2.518  15.947  14.923  1.00  0.00     0.029 A 
ATOM     23  C28 FTA A   1      -3.893  16.066  14.845  1.00  0.00     0.002 A 
ATOM     24  C30 FTA A   1      -4.666  15.241  14.046  1.00  0.00     0.000 A 
ATOM     25  C29 FTA A   1      -4.059  14.270  13.294  1.00  0.00     0.002 A 
ATOM     26  C27 FTA A   1      -2.668  14.145  13.374  1.00  0.00     0.029 A 
ENDBRANCH  19  21
ENDBRANCH  16  19
ENDBRANCH  11  13
ENDBRANCH   1  11
TORSDOF 5
ENDMDL
MODEL 5
REMARK VINA RESULT:    -5.558      1.486      2.126
REMARK INTER + INTRA:          -8.088
REMARK INTER:                  -7.185
REMARK INTRA:                  -0.904
REMARK UNBOUND:                -0.906
REMARK  5 active torsions:
REMARK  status: ('A' for Active; 'I' for Inactive)
REMARK    1  A    between atoms: N8_1  and  C24_2 
REMARK    2  A    between atoms: N8_1  and  C7_8 
REMARK    3  A    between atoms: C2_13  and  N1_14 
REMARK    4  A    between atoms: N1_14  and  C17_15 
REMARK    5  A    between atoms: C14_16  and  C13_19 
ROOT
ATOM      1  C17 FTA A   1       4.791  18.034  18.921  1.00  0.00     0.142 C 
ATOM      2  C14 FTA A   1       5.994  17.941  19.523  1.00  0.00     0.158 C 
ATOM      3  C18 FTA A   1       6.165  18.405  20.883  1.00  0.00     0.069 C 
ATOM      4  N21 FTA A   1       6.169  18.871  21.959  1.00  0.00    -0.197 NA
ENDROOT
BRANCH   2   5
ATOM      5  C13 FTA A   1       7.132  17.346  18.786  1.00  0.00     0.197 A 
ATOM      6  N15 FTA A   1       8.476  17.429  19.143  1.00  0.00    -0.093 NA
ATOM      7  N19 FTA A   1       9.211  16.777  18.161  1.00  0.00    -0.231 N 
ATOM      8  N20 FTA A   1       8.345  16.290  17.193  1.00  0.00    -0.017 NA
ATOM      9  H15 FTA A   1      10.236  16.672  18.152  1.00  0.00     0.200 HD
ATOM     10  N16 FTA A   1       7.054  16.632  17.584  1.00  0.00    -0.090 NA
ENDBRANCH   2   5
BRANCH   1  11
ATOM     11  N1  FTA A   1       4.708  18.641  17.721  1.00  0.00    -0.389 N 
ATOM     12  H11 FTA A   1       5.258  19.502  17.584  1.00  0.00     0.159 HD
BRANCH  11  13
ATOM     13  C2  FTA A   1       3.920  18.185  16.630  1.00  0.00     0.028 A 
ATOM     14  C4  FTA A   1       2.636  17.675  16.805  1.00  0.00     0.031 A 
ATOM     15  C6  FTA A   1       2.007  17.033  15.729  1.00  0.00     0.031 A 
ATOM     16  C7  FTA A   1       2.626  16.886  14.490  1.00  0.00     0.032 A 
ATOM     17  C5  FTA A   1       3.892  17.420  14.325  1.00  0.00     0.031 A 
ATOM     18  C3  FTA A   1       4.538  18.049  15.383  1.00  0.00     0.031 A 
BRANCH  16  19
ATOM     19  N8  FTA A   1       2.101  16.065  13.460  1.00  0.00    -0.356 N 
ATOM     20  H1  FTA A   1       2.766  15.695  12.766  1.00  0.00     0.166 HD
BRANCH  19  21
ATOM     21  C24 FTA A   1       0.727  15.709  13.306  1.00  0.00     0.032 A 
ATOM     22  C26 FTA A   1       0.138  14.750  14.096  1.00  0.00     0.029 A 
ATOM     23  C28 FTA A   1      -1.141  14.330  13.784  1.00  0.00     0.002 A 
ATOM     24  C30 FTA A   1      -1.861  14.861  12.727  1.00  0.00     0.000 A 
ATOM     25  C29 FTA A   1      -1.300  15.844  11.957  1.00  0.00     0.002 A 
ATOM     26  C27 FTA A   1      -0.003  16.269  12.268  1.00  0.00     0.029 A 
ENDBRANCH  19  21
ENDBRANCH  16  19
ENDBRANCH  11  13
ENDBRANCH   1  11
TORSDOF 5
ENDMDL
MODEL 6
REMARK VINA RESULT:    -5.472      1.663      2.989
REMARK INTER + INTRA:          -7.977
REMARK INTER:                  -6.991
REMARK INTRA:                  -0.987
REMARK UNBOUND:                -0.906
REMARK  5 active torsions:
REMARK  status: ('A' for Active; 'I' for Inactive)
REMARK    1  A    between atoms: N8_1  and  C24_2 
REMARK    2  A    between atoms: N8_1  and  C7_8 
REMARK    3  A    between atoms: C2_13  and  N1_14 
REMARK    4  A    between atoms: N1_14  and  C17_15 
REMARK    5  A    between atoms: C14_16  and  C13_19 
ROOT
ATOM      1  C17 FTA A   1       7.176  17.676  17.077  1.00  0.00     0.142 C 
ATOM      2  C14 FTA A   1       8.038  17.552  18.105  1.00  0.00     0.158 C 
ATOM      3  C18 FTA A   1       9.433  17.257  17.853  1.00  0.00     0.069 C 
ATOM      4  N21 FTA A   1      10.513  16.962  17.504  1.00  0.00    -0.197 NA
ENDROOT
BRANCH   2   5
ATOM      5  C13 FTA A   1       7.551  17.734  19.491  1.00  0.00     0.197 A 
ATOM      6  N15 FTA A   1       8.342  17.886  20.628  1.00  0.00    -0.093 NA
ATOM      7  N19 FTA A   1       7.489  17.982  21.720  1.00  0.00    -0.231 N 
ATOM      8  N20 FTA A   1       6.176  17.890  21.282  1.00  0.00    -0.017 NA
ATOM      9  H15 FTA A   1       7.785  18.102  22.700  1.00  0.00     0.200 HD
ATOM     10  N16 FTA A   1       6.212  17.747  19.899  1.00  0.00    -0.090 NA
ENDBRANCH   2   5
BRANCH   1  11
ATOM     11  N1  FTA A   1       6.044  16.945  17.084  1.00  0.00    -0.389 N 
ATOM     12  H11 FTA A   1       6.088  16.004  17.503  1.00  0.00     0.159 HD
BRANCH  11  13
ATOM     13  C2  FTA A   1       4.795  17.372  16.558  1.00  0.00     0.028 A 
ATOM     14  C4  FTA A   1       3.685  17.592  17.370  1.00  0.00     0.031 A 
ATOM     15  C6  FTA A   1       2.432  17.785  16.772  1.00  0.00     0.031 A 
ATOM     16  C7  FTA A   1       2.260  17.762  15.391  1.00  0.00     0.032 A 
ATOM     17  C5  FTA A   1       3.376  17.567  14.597  1.00  0.00     0.031 A 
ATOM     18  C3  FTA A   1       4.625  17.360  15.171  1.00  0.00     0.031 A 
BRANCH  16  19
ATOM     19  N8  FTA A   1       0.983  17.745  14.775  1.00  0.00    -0.356 N 
ATOM     20  H1  FTA A   1       0.506  18.650  14.650  1.00  0.00     0.166 HD
BRANCH  19  21
ATOM     21  C24 FTA A   1       0.303  16.577  14.313  1.00  0.00     0.032 A 
ATOM     22  C26 FTA A   1      -0.367  16.562  13.112  1.00  0.00     0.029 A 
ATOM     23  C28 FTA A   1      -1.146  15.463  12.803  1.00  0.00     0.002 A 
ATOM     24  C30 FTA A   1      -1.251  14.367  13.643  1.00  0.00     0.000 A 
ATOM     25  C29 FTA A   1      -0.558  14.354  14.824  1.00  0.00     0.002 A 
ATOM     26  C27 FTA A   1       0.229  15.467  15.141  1.00  0.00     0.029 A 
ENDBRANCH  19  21
ENDBRANCH  16  19
ENDBRANCH  11  13
ENDBRANCH   1  11
TORSDOF 5
ENDMDL
MODEL 7
REMARK VINA RESULT:    -5.408      1.611      2.638
REMARK INTER + INTRA:          -7.895
REMARK INTER:                  -6.987
REMARK INTRA:                  -0.907
REMARK UNBOUND:                -0.906
REMARK  5 active torsions:
REMARK  status: ('A' for Active; 'I' for Inactive)
REMARK    1  A    between atoms: N8_1  and  C24_2 
REMARK    2  A    between atoms: N8_1  and  C7_8 
REMARK    3  A    between atoms: C2_13  and  N1_14 
REMARK    4  A    between atoms: N1_14  and  C17_15 
REMARK    5  A    between atoms: C14_16  and  C13_19 
ROOT
ATOM      1  C17 FTA A   1       7.669  16.479  17.055  1.00  0.00     0.142 C 
ATOM      2  C14 FTA A   1       8.763  17.062  17.584  1.00  0.00     0.158 C 
ATOM      3  C18 FTA A   1       8.783  17.439  18.981  1.00  0.00     0.069 C 
ATOM      4  N21 FTA A   1       8.636  17.741  20.105  1.00  0.00    -0.197 NA
ENDROOT
BRANCH   2   5
ATOM      5  C13 FTA A   1       9.948  17.297  16.728  1.00  0.00     0.197 A 
ATOM      6  N15 FTA A   1       9.932  17.647  15.380  1.00  0.00    -0.093 NA
ATOM      7  N19 FTA A   1      11.251  17.724  14.953  1.00  0.00    -0.231 N 
ATOM      8  N20 FTA A   1      12.092  17.425  16.015  1.00  0.00    -0.017 NA
ATOM      9  H15 FTA A   1      11.557  17.965  13.999  1.00  0.00     0.200 HD
ATOM     10  N16 FTA A   1      11.286  17.170  17.120  1.00  0.00    -0.090 NA
ENDBRANCH   2   5
BRANCH   1  11
ATOM     11  N1  FTA A   1       7.122  17.009  15.944  1.00  0.00    -0.389 N 
ATOM     12  H11 FTA A   1       7.739  17.551  15.322  1.00  0.00     0.159 HD
BRANCH  11  13
ATOM     13  C2  FTA A   1       5.759  16.875  15.563  1.00  0.00     0.028 A 
ATOM     14  C4  FTA A   1       5.372  16.721  14.234  1.00  0.00     0.031 A 
ATOM     15  C6  FTA A   1       4.014  16.827  13.904  1.00  0.00     0.031 A 
ATOM     16  C7  FTA A   1       3.038  17.085  14.863  1.00  0.00     0.032 A 
ATOM     17  C5  FTA A   1       3.435  17.211  16.182  1.00  0.00     0.031 A 
ATOM     18  C3  FTA A   1       4.778  17.122  16.528  1.00  0.00     0.031 A 
BRANCH  16  19
ATOM     19  N8  FTA A   1       1.697  17.403  14.529  1.00  0.00    -0.356 N 
ATOM     20  H1  FTA A   1       1.452  18.401  14.455  1.00  0.00     0.166 HD
BRANCH  19  21
ATOM     21  C24 FTA A   1       0.658  16.454  14.286  1.00  0.00     0.032 A 
ATOM     22  C26 FTA A   1       0.309  15.512  15.225  1.00  0.00     0.029 A 
ATOM     23  C28 FTA A   1      -0.580  14.517  14.866  1.00  0.00     0.002 A 
ATOM     24  C30 FTA A   1      -1.155  14.453  13.608  1.00  0.00     0.000 A 
ATOM     25  C29 FTA A   1      -0.844  15.407  12.676  1.00  0.00     0.002 A 
ATOM     26  C27 FTA A   1       0.058  16.414  13.036  1.00  0.00     0.029 A 
ENDBRANCH  19  21
ENDBRANCH  16  19
ENDBRANCH  11  13
ENDBRANCH   1  11
TORSDOF 5
ENDMDL
MODEL 8
REMARK VINA RESULT:    -5.394      2.112      3.360
REMARK INTER + INTRA:          -7.877
REMARK INTER:                  -6.971
REMARK INTRA:                  -0.906
REMARK UNBOUND:                -0.906
REMARK  5 active torsions:
REMARK  status: ('A' for Active; 'I' for Inactive)
REMARK    1  A    between atoms: N8_1  and  C24_2 
REMARK    2  A    between atoms: N8_1  and  C7_8 
REMARK    3  A    between atoms: C2_13  and  N1_14 
REMARK    4  A    between atoms: N1_14  and  C17_15 
REMARK    5  A    between atoms: C14_16  and  C13_19 
ROOT
ATOM      1  C17 FTA A   1       6.510  17.894  20.150  1.00  0.00     0.142 C 
ATOM      2  C14 FTA A   1       7.853  17.851  20.256  1.00  0.00     0.158 C 
ATOM      3  C18 FTA A   1       8.489  18.075  21.537  1.00  0.00     0.069 C 
ATOM      4  N21 FTA A   1       8.865  18.331  22.617  1.00  0.00    -0.197 NA
ENDROOT
BRANCH   2   5
ATOM      5  C13 FTA A   1       8.669  17.557  19.056  1.00  0.00     0.197 A 
ATOM      6  N15 FTA A   1       9.801  18.255  18.640  1.00  0.00    -0.093 NA
ATOM      7  N19 FTA A   1      10.231  17.683  17.450  1.00  0.00    -0.231 N 
ATOM      8  N20 FTA A   1       9.382  16.639  17.115  1.00  0.00    -0.017 NA
ATOM      9  H15 FTA A   1      11.050  17.987  16.903  1.00  0.00     0.200 HD
ATOM     10  N16 FTA A   1       8.420  16.552  18.115  1.00  0.00    -0.090 NA
ENDBRANCH   2   5
BRANCH   1  11
ATOM     11  N1  FTA A   1       5.955  18.695  19.220  1.00  0.00    -0.389 N 
ATOM     12  H11 FTA A   1       6.206  19.694  19.241  1.00  0.00     0.159 HD
BRANCH  11  13
ATOM     13  C2  FTA A   1       5.051  18.267  18.210  1.00  0.00     0.028 A 
ATOM     14  C4  FTA A   1       5.463  18.016  16.903  1.00  0.00     0.031 A 
ATOM     15  C6  FTA A   1       4.494  17.824  15.910  1.00  0.00     0.031 A 
ATOM     16  C7  FTA A   1       3.130  17.877  16.186  1.00  0.00     0.032 A 
ATOM     17  C5  FTA A   1       2.737  18.101  17.493  1.00  0.00     0.031 A 
ATOM     18  C3  FTA A   1       3.682  18.308  18.490  1.00  0.00     0.031 A 
BRANCH  16  19
ATOM     19  N8  FTA A   1       2.139  17.894  15.171  1.00  0.00    -0.356 N 
ATOM     20  H1  FTA A   1       1.986  18.785  14.676  1.00  0.00     0.166 HD
BRANCH  19  21
ATOM     21  C24 FTA A   1       1.337  16.780  14.779  1.00  0.00     0.032 A 
ATOM     22  C26 FTA A   1       0.454  16.187  15.650  1.00  0.00     0.029 A 
ATOM     23  C28 FTA A   1      -0.163  15.011  15.268  1.00  0.00     0.002 A 
ATOM     24  C30 FTA A   1       0.052  14.427  14.031  1.00  0.00     0.000 A 
ATOM     25  C29 FTA A   1       0.900  15.029  13.140  1.00  0.00     0.002 A 
ATOM     26  C27 FTA A   1       1.529  16.218  13.525  1.00  0.00     0.029 A 
ENDBRANCH  19  21
ENDBRANCH  16  19
ENDBRANCH  11  13
ENDBRANCH   1  11
TORSDOF 5
ENDMDL
MODEL 9
REMARK VINA RESULT:    -5.321      1.468      1.918
REMARK INTER + INTRA:          -7.782
REMARK INTER:                  -6.850
REMARK INTRA:                  -0.933
REMARK UNBOUND:                -0.906
REMARK  5 active torsions:
REMARK  status: ('A' for Active; 'I' for Inactive)
REMARK    1  A    between atoms: N8_1  and  C24_2 
REMARK    2  A    between atoms: N8_1  and  C7_8 
REMARK    3  A    between atoms: C2_13  and  N1_14 
REMARK    4  A    between atoms: N1_14  and  C17_15 
REMARK    5  A    between atoms: C14_16  and  C13_19 
ROOT
ATOM      1  C17 FTA A   1       4.872  16.723  17.654  1.00  0.00     0.142 C 
ATOM      2  C14 FTA A   1       5.984  17.124  18.300  1.00  0.00     0.158 C 
ATOM      3  C18 FTA A   1       5.888  17.705  19.622  1.00  0.00     0.069 C 
ATOM      4  N21 FTA A   1       5.655  18.207  20.655  1.00  0.00    -0.197 NA
ENDROOT
BRANCH   2   5
ATOM      5  C13 FTA A   1       7.305  16.952  17.652  1.00  0.00     0.197 A 
ATOM      6  N15 FTA A   1       8.485  16.563  18.282  1.00  0.00    -0.093 NA
ATOM      7  N19 FTA A   1       9.491  16.570  17.325  1.00  0.00    -0.231 N 
ATOM      8  N20 FTA A   1       8.957  16.961  16.106  1.00  0.00    -0.017 NA
ATOM      9  H15 FTA A   1      10.478  16.325  17.493  1.00  0.00     0.200 HD
ATOM     10  N16 FTA A   1       7.599  17.188  16.304  1.00  0.00    -0.090 NA
ENDBRANCH   2   5
BRANCH   1  11
ATOM     11  N1  FTA A   1       4.643  17.176  16.406  1.00  0.00    -0.389 N 
ATOM     12  H11 FTA A   1       5.404  17.691  15.940  1.00  0.00     0.159 HD
BRANCH  11  13
ATOM     13  C2  FTA A   1       3.433  16.997  15.683  1.00  0.00     0.028 A 
ATOM     14  C4  FTA A   1       3.392  17.012  14.291  1.00  0.00     0.031 A 
ATOM     15  C6  FTA A   1       2.148  17.062  13.647  1.00  0.00     0.031 A 
ATOM     16  C7  FTA A   1       0.949  17.099  14.355  1.00  0.00     0.032 A 
ATOM     17  C5  FTA A   1       1.006  17.058  15.737  1.00  0.00     0.031 A 
ATOM     18  C3  FTA A   1       2.230  17.022  16.394  1.00  0.00     0.031 A 
BRANCH  16  19
ATOM     19  N8  FTA A   1      -0.301  17.359  13.739  1.00  0.00    -0.356 N 
ATOM     20  H1  FTA A   1      -0.385  18.226  13.188  1.00  0.00     0.166 HD
BRANCH  19  21
ATOM     21  C24 FTA A   1      -1.453  16.520  13.819  1.00  0.00     0.032 A 
ATOM     22  C26 FTA A   1      -2.505  16.818  14.651  1.00  0.00     0.029 A 
ATOM     23  C28 FTA A   1      -3.509  15.881  14.812  1.00  0.00     0.002 A 
ATOM     24  C30 FTA A   1      -3.508  14.669  14.142  1.00  0.00     0.000 A 
ATOM     25  C29 FTA A   1      -2.484  14.377  13.281  1.00  0.00     0.002 A 
ATOM     26  C27 FTA A   1      -1.465  15.322  13.119  1.00  0.00     0.029 A 
ENDBRANCH  19  21
ENDBRANCH  16  19
ENDBRANCH  11  13
ENDBRANCH   1  11
TORSDOF 5
ENDMDL
