MODEL 1
REMARK VINA RESULT:    -9.108      0.000      0.000
REMARK INTER + INTRA:         -13.551
REMARK INTER:                 -11.979
REMARK INTRA:                  -1.571
REMARK UNBOUND:                -1.248
REMARK  7 active torsions:
REMARK  status: ('A' for Active; 'I' for Inactive)
REMARK    1  A    between atoms: O_1  and  C_2 
REMARK    2  A    between atoms: C_2  and  N_4 
REMARK    3  A    between atoms: C_10  and  N_13 
REMARK       I    between atoms: N_13  and  C_15 
REMARK    4  A    between atoms: C_15  and  C_17 
REMARK    5  A    between atoms: C_19  and  O_20 
REMARK    6  A    between atoms: C_27  and  C_28 
REMARK    7  A    between atoms: C_28  and  C_29 
ROOT
HETATM    1  C   UNL     1       6.723  11.459  22.791  0.00  0.00     0.066 A 
HETATM    2  C   UNL     1       6.203  12.770  22.942  0.00  0.00     0.035 A 
HETATM    3  C   UNL     1       7.613  10.969  23.750  0.00  0.00     0.083 A 
HETATM    4  C   UNL     1       8.122  11.786  24.767  0.00  0.00     0.069 A 
HETATM    5  C   UNL     1       7.631  13.087  24.851  0.00  0.00     0.065 A 
HETATM    6  C   UNL     1       6.672  13.603  23.986  0.00  0.00     0.020 A 
HETATM    7  N   UNL     1       7.887  14.092  25.747  0.00  0.00    -0.277 N 
HETATM    8  H   UNL     1       8.524  14.067  26.533  0.00  0.00     0.189 HD
HETATM    9  N   UNL     1       7.156  15.200  25.559  0.00  0.00    -0.178 NA
HETATM   10  C   UNL     1       6.417  14.926  24.470  0.00  0.00     0.071 A 
ENDROOT
BRANCH   1  11
HETATM   11  C   UNL     1       6.177  10.656  21.657  0.00  0.00     0.260 C 
HETATM   12  N   UNL     1       6.548  10.896  20.306  0.00  0.00    -0.318 N 
HETATM   13  C   UNL     1       7.656  11.774  19.921  0.00  0.00     0.159 C 
HETATM   14  O   UNL     1       5.386   9.779  22.014  0.00  0.00    -0.267 OA
BRANCH  12  15
HETATM   15  C   UNL     1       5.815  10.278  19.212  0.00  0.00     0.039 A 
HETATM   16  C   UNL     1       5.904   8.896  18.978  0.00  0.00     0.059 A 
HETATM   17  C   UNL     1       5.187   8.290  17.953  0.00  0.00     0.040 A 
HETATM   18  N   UNL     1       5.252   6.941  17.545  0.00  0.00    -0.354 N 
HETATM   19  C   UNL     1       4.326   9.050  17.168  0.00  0.00    -0.030 A 
HETATM   20  C   UNL     1       4.091   6.772  16.657  0.00  0.00     0.130 C 
HETATM   21  C   UNL     1       3.665   8.171  16.162  0.00  0.00     0.060 C 
HETATM   22  C   UNL     1       4.191  10.414  17.357  0.00  0.00     0.012 A 
HETATM   23  C   UNL     1       4.945  11.022  18.378  0.00  0.00     0.030 A 
BRANCH  18  24
HETATM   24  C   UNL     1       5.633   5.942  18.525  0.00  0.00     0.216 C 
HETATM   25  C   UNL     1       4.465   5.337  19.285  0.00  0.00     0.063 C 
BRANCH  24  26
HETATM   26  O   UNL     1       6.220   4.880  17.801  0.00  0.00    -0.377 OA
HETATM   27  H   UNL     1       5.493   4.620  17.207  0.00  0.00     0.212 HD
ENDBRANCH  24  26
ENDBRANCH  18  24
ENDBRANCH  12  15
ENDBRANCH   1  11
BRANCH   3  28
HETATM   28  O   UNL     1       8.020   9.663  23.808  0.00  0.00    -0.360 OA
HETATM   29  H   UNL     1       7.420   9.134  23.246  0.00  0.00     0.217 HD
ENDBRANCH   3  28
BRANCH  10  30
HETATM   30  C   UNL     1       5.418  15.933  23.999  0.00  0.00     0.100 C 
BRANCH  30  31
HETATM   31  C   UNL     1       4.035  15.337  24.129  0.00  0.00    -0.052 A 
HETATM   32  C   UNL     1       3.450  15.205  25.396  0.00  0.00     0.007 A 
HETATM   33  C   UNL     1       2.121  14.799  25.525  0.00  0.00     0.001 A 
HETATM   34  C   UNL     1       1.371  14.481  24.394  0.00  0.00     0.007 A 
HETATM   35  C   UNL     1       1.951  14.534  23.123  0.00  0.00    -0.061 A 
HETATM   36  C   UNL     1       3.278  14.982  22.996  0.00  0.00     0.014 A 
HETATM   37  C   UNL     1       1.183  14.071  21.920  0.00  0.00     0.048 C 
ENDBRANCH  30  31
ENDBRANCH  10  30
TORSDOF 7
ENDMDL
MODEL 2
REMARK VINA RESULT:    -9.077      1.291      1.451
REMARK INTER + INTRA:         -13.509
REMARK INTER:                 -12.208
REMARK INTRA:                  -1.301
REMARK UNBOUND:                -1.248
REMARK  7 active torsions:
REMARK  status: ('A' for Active; 'I' for Inactive)
REMARK    1  A    between atoms: O_1  and  C_2 
REMARK    2  A    between atoms: C_2  and  N_4 
REMARK    3  A    between atoms: C_10  and  N_13 
REMARK       I    between atoms: N_13  and  C_15 
REMARK    4  A    between atoms: C_15  and  C_17 
REMARK    5  A    between atoms: C_19  and  O_20 
REMARK    6  A    between atoms: C_27  and  C_28 
REMARK    7  A    between atoms: C_28  and  C_29 
ROOT
HETATM    1  C   UNL     1       7.319  12.011  21.316  0.00  0.00     0.066 A 
HETATM    2  C   UNL     1       6.710  13.215  21.753  0.00  0.00     0.035 A 
HETATM    3  C   UNL     1       8.325  11.439  22.098  0.00  0.00     0.083 A 
HETATM    4  C   UNL     1       8.852  12.097  23.215  0.00  0.00     0.069 A 
HETATM    5  C   UNL     1       8.267  13.307  23.584  0.00  0.00     0.065 A 
HETATM    6  C   UNL     1       7.198  13.880  22.902  0.00  0.00     0.020 A 
HETATM    7  N   UNL     1       8.517  14.146  24.636  0.00  0.00    -0.277 N 
HETATM    8  H   UNL     1       9.219  14.036  25.356  0.00  0.00     0.189 HD
HETATM    9  N   UNL     1       7.686  15.195  24.717  0.00  0.00    -0.178 NA
HETATM   10  C   UNL     1       6.881  15.060  23.650  0.00  0.00     0.071 A 
ENDROOT
BRANCH   1  11
HETATM   11  C   UNL     1       6.743  11.385  20.088  0.00  0.00     0.260 C 
HETATM   12  N   UNL     1       5.485  10.725  20.089  0.00  0.00    -0.318 N 
HETATM   13  C   UNL     1       4.540  10.796  21.207  0.00  0.00     0.159 C 
HETATM   14  O   UNL     1       7.464  11.505  19.094  0.00  0.00    -0.267 OA
BRANCH  12  15
HETATM   15  C   UNL     1       5.071   9.911  18.955  0.00  0.00     0.039 A 
HETATM   16  C   UNL     1       5.089   8.510  19.034  0.00  0.00     0.059 A 
HETATM   17  C   UNL     1       4.671   7.721  17.968  0.00  0.00     0.040 A 
HETATM   18  N   UNL     1       4.724   6.315  17.870  0.00  0.00    -0.354 N 
HETATM   19  C   UNL     1       4.178   8.324  16.815  0.00  0.00    -0.030 A 
HETATM   20  C   UNL     1       3.886   5.999  16.703  0.00  0.00     0.130 C 
HETATM   21  C   UNL     1       3.778   7.272  15.837  0.00  0.00     0.060 C 
HETATM   22  C   UNL     1       4.129   9.700  16.683  0.00  0.00     0.012 A 
HETATM   23  C   UNL     1       4.584  10.488  17.757  0.00  0.00     0.030 A 
BRANCH  18  24
HETATM   24  C   UNL     1       4.677   5.538  19.094  0.00  0.00     0.216 C 
HETATM   25  C   UNL     1       3.276   5.309  19.635  0.00  0.00     0.063 C 
BRANCH  24  26
HETATM   26  O   UNL     1       5.184   4.259  18.770  0.00  0.00    -0.377 OA
HETATM   27  H   UNL     1       5.774   4.082  19.526  0.00  0.00     0.212 HD
ENDBRANCH  24  26
ENDBRANCH  18  24
ENDBRANCH  12  15
ENDBRANCH   1  11
BRANCH   3  28
HETATM   28  O   UNL     1       8.839  10.189  21.874  0.00  0.00    -0.360 OA
HETATM   29  H   UNL     1       9.355   9.929  22.663  0.00  0.00     0.217 HD
ENDBRANCH   3  28
BRANCH  10  30
HETATM   30  C   UNL     1       5.767  16.036  23.453  0.00  0.00     0.100 C 
BRANCH  30  31
HETATM   31  C   UNL     1       4.465  15.366  23.828  0.00  0.00    -0.052 A 
HETATM   32  C   UNL     1       3.944  15.530  25.119  0.00  0.00     0.007 A 
HETATM   33  C   UNL     1       2.674  15.047  25.439  0.00  0.00     0.001 A 
HETATM   34  C   UNL     1       1.926  14.358  24.487  0.00  0.00     0.007 A 
HETATM   35  C   UNL     1       2.451  14.115  23.214  0.00  0.00    -0.061 A 
HETATM   36  C   UNL     1       3.713  14.639  22.884  0.00  0.00     0.014 A 
HETATM   37  C   UNL     1       1.697  13.266  22.232  0.00  0.00     0.048 C 
ENDBRANCH  30  31
ENDBRANCH  10  30
TORSDOF 7
ENDMDL
MODEL 3
REMARK VINA RESULT:    -8.569      2.030      2.812
REMARK INTER + INTRA:         -12.823
REMARK INTER:                 -11.755
REMARK INTRA:                  -1.067
REMARK UNBOUND:                -1.248
REMARK  7 active torsions:
REMARK  status: ('A' for Active; 'I' for Inactive)
REMARK    1  A    between atoms: O_1  and  C_2 
REMARK    2  A    between atoms: C_2  and  N_4 
REMARK    3  A    between atoms: C_10  and  N_13 
REMARK       I    between atoms: N_13  and  C_15 
REMARK    4  A    between atoms: C_15  and  C_17 
REMARK    5  A    between atoms: C_19  and  O_20 
REMARK    6  A    between atoms: C_27  and  C_28 
REMARK    7  A    between atoms: C_28  and  C_29 
ROOT
HETATM    1  C   UNL     1       8.876  11.412  22.357  0.00  0.00     0.066 A 
HETATM    2  C   UNL     1       8.703  12.563  23.168  0.00  0.00     0.035 A 
HETATM    3  C   UNL     1       9.767  10.419  22.773  0.00  0.00     0.083 A 
HETATM    4  C   UNL     1      10.602  10.598  23.882  0.00  0.00     0.069 A 
HETATM    5  C   UNL     1      10.444  11.767  24.623  0.00  0.00     0.065 A 
HETATM    6  C   UNL     1       9.507  12.748  24.316  0.00  0.00     0.020 A 
HETATM    7  N   UNL     1      11.061  12.200  25.767  0.00  0.00    -0.277 N 
HETATM    8  H   UNL     1      11.789  11.729  26.288  0.00  0.00     0.189 HD
HETATM    9  N   UNL     1      10.586  13.358  26.247  0.00  0.00    -0.178 NA
HETATM   10  C   UNL     1       9.644  13.720  25.359  0.00  0.00     0.071 A 
ENDROOT
BRANCH   1  11
HETATM   11  C   UNL     1       7.990  11.305  21.160  0.00  0.00     0.260 C 
HETATM   12  N   UNL     1       6.723  10.663  21.206  0.00  0.00    -0.318 N 
HETATM   13  C   UNL     1       6.070  10.261  22.454  0.00  0.00     0.159 C 
HETATM   14  O   UNL     1       8.469  11.827  20.149  0.00  0.00    -0.267 OA
BRANCH  12  15
HETATM   15  C   UNL     1       6.003  10.351  19.980  0.00  0.00     0.039 A 
HETATM   16  C   UNL     1       5.964   9.038  19.485  0.00  0.00     0.059 A 
HETATM   17  C   UNL     1       5.256   8.722  18.330  0.00  0.00     0.040 A 
HETATM   18  N   UNL     1       5.208   7.477  17.670  0.00  0.00    -0.354 N 
HETATM   19  C   UNL     1       4.531   9.710  17.672  0.00  0.00    -0.030 A 
HETATM   20  C   UNL     1       4.096   7.612  16.717  0.00  0.00     0.130 C 
HETATM   21  C   UNL     1       3.850   9.119  16.486  0.00  0.00     0.060 C 
HETATM   22  C   UNL     1       4.526  11.020  18.118  0.00  0.00     0.012 A 
HETATM   23  C   UNL     1       5.271  11.334  19.270  0.00  0.00     0.030 A 
BRANCH  18  24
HETATM   24  C   UNL     1       5.419   6.274  18.452  0.00  0.00     0.216 C 
HETATM   25  C   UNL     1       4.200   5.817  19.235  0.00  0.00     0.063 C 
BRANCH  24  26
HETATM   26  O   UNL     1       5.697   5.243  17.526  0.00  0.00    -0.377 OA
HETATM   27  H   UNL     1       6.291   5.696  16.898  0.00  0.00     0.212 HD
ENDBRANCH  24  26
ENDBRANCH  18  24
ENDBRANCH  12  15
ENDBRANCH   1  11
BRANCH   3  28
HETATM   28  O   UNL     1       9.866   9.191  22.174  0.00  0.00    -0.360 OA
HETATM   29  H   UNL     1       8.965   8.820  22.095  0.00  0.00     0.217 HD
ENDBRANCH   3  28
BRANCH  10  30
HETATM   30  C   UNL     1       8.844  14.956  25.614  0.00  0.00     0.100 C 
BRANCH  30  31
HETATM   31  C   UNL     1       7.510  14.820  24.915  0.00  0.00    -0.052 A 
HETATM   32  C   UNL     1       7.222  15.620  23.801  0.00  0.00     0.007 A 
HETATM   33  C   UNL     1       6.064  15.407  23.054  0.00  0.00     0.001 A 
HETATM   34  C   UNL     1       5.157  14.419  23.432  0.00  0.00     0.007 A 
HETATM   35  C   UNL     1       5.382  13.655  24.582  0.00  0.00    -0.061 A 
HETATM   36  C   UNL     1       6.570  13.847  25.308  0.00  0.00     0.014 A 
HETATM   37  C   UNL     1       4.345  12.680  25.058  0.00  0.00     0.048 C 
ENDBRANCH  30  31
ENDBRANCH  10  30
TORSDOF 7
ENDMDL
MODEL 4
REMARK VINA RESULT:    -8.396      2.624      8.965
REMARK INTER + INTRA:         -12.589
REMARK INTER:                 -11.443
REMARK INTRA:                  -1.145
REMARK UNBOUND:                -1.248
REMARK  7 active torsions:
REMARK  status: ('A' for Active; 'I' for Inactive)
REMARK    1  A    between atoms: O_1  and  C_2 
REMARK    2  A    between atoms: C_2  and  N_4 
REMARK    3  A    between atoms: C_10  and  N_13 
REMARK       I    between atoms: N_13  and  C_15 
REMARK    4  A    between atoms: C_15  and  C_17 
REMARK    5  A    between atoms: C_19  and  O_20 
REMARK    6  A    between atoms: C_27  and  C_28 
REMARK    7  A    between atoms: C_28  and  C_29 
ROOT
HETATM    1  C   UNL     1       5.165   9.283  18.724  0.00  0.00     0.066 A 
HETATM    2  C   UNL     1       5.767   8.064  19.130  0.00  0.00     0.035 A 
HETATM    3  C   UNL     1       4.109   9.244  17.810  0.00  0.00     0.083 A 
HETATM    4  C   UNL     1       3.734   8.057  17.170  0.00  0.00     0.069 A 
HETATM    5  C   UNL     1       4.386   6.887  17.552  0.00  0.00     0.065 A 
HETATM    6  C   UNL     1       5.377   6.845  18.527  0.00  0.00     0.020 A 
HETATM    7  N   UNL     1       4.211   5.587  17.157  0.00  0.00    -0.277 N 
HETATM    8  H   UNL     1       3.556   5.236  16.471  0.00  0.00     0.189 HD
HETATM    9  N   UNL     1       4.977   4.703  17.812  0.00  0.00    -0.178 NA
HETATM   10  C   UNL     1       5.714   5.458  18.644  0.00  0.00     0.071 A 
ENDROOT
BRANCH   1  11
HETATM   11  C   UNL     1       5.646  10.520  19.409  0.00  0.00     0.260 C 
HETATM   12  N   UNL     1       5.456  10.743  20.799  0.00  0.00    -0.318 N 
HETATM   13  C   UNL     1       4.992   9.706  21.724  0.00  0.00     0.159 C 
HETATM   14  O   UNL     1       6.217  11.307  18.651  0.00  0.00    -0.267 OA
BRANCH  12  15
HETATM   15  C   UNL     1       5.702  12.054  21.383  0.00  0.00     0.039 A 
HETATM   16  C   UNL     1       4.669  12.765  22.013  0.00  0.00     0.059 A 
HETATM   17  C   UNL     1       4.898  14.005  22.598  0.00  0.00     0.040 A 
HETATM   18  N   UNL     1       3.944  14.868  23.175  0.00  0.00    -0.354 N 
HETATM   19  C   UNL     1       6.183  14.538  22.606  0.00  0.00    -0.030 A 
HETATM   20  C   UNL     1       4.747  15.864  23.902  0.00  0.00     0.130 C 
HETATM   21  C   UNL     1       6.170  15.855  23.305  0.00  0.00     0.060 C 
HETATM   22  C   UNL     1       7.242  13.879  22.008  0.00  0.00     0.012 A 
HETATM   23  C   UNL     1       6.992  12.638  21.391  0.00  0.00     0.030 A 
BRANCH  18  24
HETATM   24  C   UNL     1       2.737  14.287  23.731  0.00  0.00     0.216 C 
HETATM   25  C   UNL     1       2.474  14.660  25.180  0.00  0.00     0.063 C 
BRANCH  24  26
HETATM   26  O   UNL     1       1.661  14.825  22.988  0.00  0.00    -0.377 OA
HETATM   27  H   UNL     1       2.099  15.063  22.150  0.00  0.00     0.212 HD
ENDBRANCH  24  26
ENDBRANCH  18  24
ENDBRANCH  12  15
ENDBRANCH   1  11
BRANCH   3  28
HETATM   28  O   UNL     1       3.335  10.331  17.501  0.00  0.00    -0.360 OA
HETATM   29  H   UNL     1       2.643  10.413  18.187  0.00  0.00     0.217 HD
ENDBRANCH   3  28
BRANCH  10  30
HETATM   30  C   UNL     1       6.654   4.788  19.593  0.00  0.00     0.100 C 
BRANCH  30  31
HETATM   31  C   UNL     1       6.494   5.419  20.957  0.00  0.00    -0.052 A 
HETATM   32  C   UNL     1       5.284   5.285  21.650  0.00  0.00     0.007 A 
HETATM   33  C   UNL     1       5.167   5.729  22.968  0.00  0.00     0.001 A 
HETATM   34  C   UNL     1       6.244   6.350  23.597  0.00  0.00     0.007 A 
HETATM   35  C   UNL     1       7.440   6.564  22.905  0.00  0.00    -0.061 A 
HETATM   36  C   UNL     1       7.566   6.078  21.592  0.00  0.00     0.014 A 
HETATM   37  C   UNL     1       8.554   7.343  23.541  0.00  0.00     0.048 C 
ENDBRANCH  30  31
ENDBRANCH  10  30
TORSDOF 7
ENDMDL
MODEL 5
REMARK VINA RESULT:    -8.376      2.824      5.287
REMARK INTER + INTRA:         -12.562
REMARK INTER:                 -11.754
REMARK INTRA:                  -0.809
REMARK UNBOUND:                -1.248
REMARK  7 active torsions:
REMARK  status: ('A' for Active; 'I' for Inactive)
REMARK    1  A    between atoms: O_1  and  C_2 
REMARK    2  A    between atoms: C_2  and  N_4 
REMARK    3  A    between atoms: C_10  and  N_13 
REMARK       I    between atoms: N_13  and  C_15 
REMARK    4  A    between atoms: C_15  and  C_17 
REMARK    5  A    between atoms: C_19  and  O_20 
REMARK    6  A    between atoms: C_27  and  C_28 
REMARK    7  A    between atoms: C_28  and  C_29 
ROOT
HETATM    1  C   UNL     1       5.332  12.174  21.583  0.00  0.00     0.066 A 
HETATM    2  C   UNL     1       6.653  12.677  21.462  0.00  0.00     0.035 A 
HETATM    3  C   UNL     1       4.353  12.978  22.173  0.00  0.00     0.083 A 
HETATM    4  C   UNL     1       4.672  14.198  22.782  0.00  0.00     0.069 A 
HETATM    5  C   UNL     1       5.992  14.635  22.692  0.00  0.00     0.065 A 
HETATM    6  C   UNL     1       6.992  13.926  22.034  0.00  0.00     0.020 A 
HETATM    7  N   UNL     1       6.593  15.785  23.131  0.00  0.00    -0.277 N 
HETATM    8  H   UNL     1       6.163  16.548  23.638  0.00  0.00     0.189 HD
HETATM    9  N   UNL     1       7.884  15.899  22.788  0.00  0.00    -0.178 NA
HETATM   10  C   UNL     1       8.152  14.759  22.131  0.00  0.00     0.071 A 
ENDROOT
BRANCH   1  11
HETATM   11  C   UNL     1       5.069  10.844  20.957  0.00  0.00     0.260 C 
HETATM   12  N   UNL     1       5.475   9.625  21.562  0.00  0.00    -0.318 N 
HETATM   13  C   UNL     1       5.967   9.535  22.939  0.00  0.00     0.159 C 
HETATM   14  O   UNL     1       4.472  10.921  19.880  0.00  0.00    -0.267 OA
BRANCH  12  15
HETATM   15  C   UNL     1       5.436   8.375  20.816  0.00  0.00     0.039 A 
HETATM   16  C   UNL     1       4.431   8.138  19.865  0.00  0.00     0.059 A 
HETATM   17  C   UNL     1       4.398   6.960  19.127  0.00  0.00     0.040 A 
HETATM   18  N   UNL     1       3.404   6.549  18.215  0.00  0.00    -0.354 N 
HETATM   19  C   UNL     1       5.403   6.013  19.293  0.00  0.00    -0.030 A 
HETATM   20  C   UNL     1       4.009   5.411  17.505  0.00  0.00     0.130 C 
HETATM   21  C   UNL     1       5.155   4.860  18.381  0.00  0.00     0.060 C 
HETATM   22  C   UNL     1       6.423   6.195  20.210  0.00  0.00     0.012 A 
HETATM   23  C   UNL     1       6.429   7.377  20.974  0.00  0.00     0.030 A 
BRANCH  18  24
HETATM   24  C   UNL     1       2.632   7.570  17.532  0.00  0.00     0.216 C 
HETATM   25  C   UNL     1       2.275   7.226  16.095  0.00  0.00     0.063 C 
BRANCH  24  26
HETATM   26  O   UNL     1       1.405   7.668  18.226  0.00  0.00    -0.377 OA
HETATM   27  H   UNL     1       1.554   8.455  18.781  0.00  0.00     0.212 HD
ENDBRANCH  24  26
ENDBRANCH  18  24
ENDBRANCH  12  15
ENDBRANCH   1  11
BRANCH   3  28
HETATM   28  O   UNL     1       3.018  12.674  22.165  0.00  0.00    -0.360 OA
HETATM   29  H   UNL     1       2.845  12.054  22.900  0.00  0.00     0.217 HD
ENDBRANCH   3  28
BRANCH  10  30
HETATM   30  C   UNL     1       9.510  14.566  21.536  0.00  0.00     0.100 C 
BRANCH  30  31
HETATM   31  C   UNL     1      10.505  14.372  22.657  0.00  0.00    -0.052 A 
HETATM   32  C   UNL     1      11.688  15.123  22.677  0.00  0.00     0.007 A 
HETATM   33  C   UNL     1      12.545  15.069  23.776  0.00  0.00     0.001 A 
HETATM   34  C   UNL     1      12.255  14.232  24.852  0.00  0.00     0.007 A 
HETATM   35  C   UNL     1      11.120  13.416  24.826  0.00  0.00    -0.061 A 
HETATM   36  C   UNL     1      10.238  13.505  23.735  0.00  0.00     0.014 A 
HETATM   37  C   UNL     1      10.874  12.425  25.927  0.00  0.00     0.048 C 
ENDBRANCH  30  31
ENDBRANCH  10  30
TORSDOF 7
ENDMDL
MODEL 6
REMARK VINA RESULT:    -8.349      3.884      5.753
REMARK INTER + INTRA:         -12.525
REMARK INTER:                 -11.278
REMARK INTRA:                  -1.248
REMARK UNBOUND:                -1.248
REMARK  7 active torsions:
REMARK  status: ('A' for Active; 'I' for Inactive)
REMARK    1  A    between atoms: O_1  and  C_2 
REMARK    2  A    between atoms: C_2  and  N_4 
REMARK    3  A    between atoms: C_10  and  N_13 
REMARK       I    between atoms: N_13  and  C_15 
REMARK    4  A    between atoms: C_15  and  C_17 
REMARK    5  A    between atoms: C_19  and  O_20 
REMARK    6  A    between atoms: C_27  and  C_28 
REMARK    7  A    between atoms: C_28  and  C_29 
ROOT
HETATM    1  C   UNL     1       9.776  10.596  22.892  0.00  0.00     0.066 A 
HETATM    2  C   UNL     1       9.332  11.781  23.533  0.00  0.00     0.035 A 
HETATM    3  C   UNL     1      10.857  10.668  22.010  0.00  0.00     0.083 A 
HETATM    4  C   UNL     1      11.413  11.894  21.626  0.00  0.00     0.069 A 
HETATM    5  C   UNL     1      10.914  13.044  22.233  0.00  0.00     0.065 A 
HETATM    6  C   UNL     1       9.905  13.029  23.191  0.00  0.00     0.020 A 
HETATM    7  N   UNL     1      11.277  14.359  22.111  0.00  0.00    -0.277 N 
HETATM    8  H   UNL     1      11.997  14.744  21.514  0.00  0.00     0.189 HD
HETATM    9  N   UNL     1      10.617  15.193  22.927  0.00  0.00    -0.178 NA
HETATM   10  C   UNL     1       9.757  14.398  23.584  0.00  0.00     0.071 A 
ENDROOT
BRANCH   1  11
HETATM   11  C   UNL     1       9.108   9.327  23.309  0.00  0.00     0.260 C 
HETATM   12  N   UNL     1       7.807   8.970  22.863  0.00  0.00    -0.318 N 
HETATM   13  C   UNL     1       7.103   9.676  21.789  0.00  0.00     0.159 C 
HETATM   14  O   UNL     1       9.797   8.638  24.065  0.00  0.00    -0.267 OA
BRANCH  12  15
HETATM   15  C   UNL     1       7.085   7.867  23.481  0.00  0.00     0.039 A 
HETATM   16  C   UNL     1       6.041   8.111  24.387  0.00  0.00     0.059 A 
HETATM   17  C   UNL     1       5.326   7.067  24.963  0.00  0.00     0.040 A 
HETATM   18  N   UNL     1       4.325   7.158  25.953  0.00  0.00    -0.354 N 
HETATM   19  C   UNL     1       5.612   5.754  24.605  0.00  0.00    -0.030 A 
HETATM   20  C   UNL     1       3.703   5.825  25.966  0.00  0.00     0.130 C 
HETATM   21  C   UNL     1       4.702   4.829  25.338  0.00  0.00     0.060 C 
HETATM   22  C   UNL     1       6.625   5.453  23.712  0.00  0.00     0.012 A 
HETATM   23  C   UNL     1       7.362   6.517  23.159  0.00  0.00     0.030 A 
BRANCH  18  24
HETATM   24  C   UNL     1       3.547   8.380  26.035  0.00  0.00     0.216 C 
HETATM   25  C   UNL     1       2.433   8.481  25.007  0.00  0.00     0.063 C 
BRANCH  24  26
HETATM   26  O   UNL     1       2.913   8.360  27.298  0.00  0.00    -0.377 OA
HETATM   27  H   UNL     1       2.799   9.312  27.477  0.00  0.00     0.212 HD
ENDBRANCH  24  26
ENDBRANCH  18  24
ENDBRANCH  12  15
ENDBRANCH   1  11
BRANCH   3  28
HETATM   28  O   UNL     1      11.486   9.566  21.492  0.00  0.00    -0.360 OA
HETATM   29  H   UNL     1      12.423   9.799  21.337  0.00  0.00     0.217 HD
ENDBRANCH   3  28
BRANCH  10  30
HETATM   30  C   UNL     1       8.886  14.990  24.644  0.00  0.00     0.100 C 
BRANCH  30  31
HETATM   31  C   UNL     1       7.469  15.061  24.122  0.00  0.00    -0.052 A 
HETATM   32  C   UNL     1       7.169  14.553  22.850  0.00  0.00     0.007 A 
HETATM   33  C   UNL     1       5.847  14.471  22.412  0.00  0.00     0.001 A 
HETATM   34  C   UNL     1       4.810  14.933  23.220  0.00  0.00     0.007 A 
HETATM   35  C   UNL     1       5.086  15.512  24.462  0.00  0.00    -0.061 A 
HETATM   36  C   UNL     1       6.416  15.555  24.916  0.00  0.00     0.014 A 
HETATM   37  C   UNL     1       3.982  16.123  25.276  0.00  0.00     0.048 C 
ENDBRANCH  30  31
ENDBRANCH  10  30
TORSDOF 7
ENDMDL
MODEL 7
REMARK VINA RESULT:    -8.339      2.632      3.966
REMARK INTER + INTRA:         -12.512
REMARK INTER:                 -11.219
REMARK INTRA:                  -1.293
REMARK UNBOUND:                -1.248
REMARK  7 active torsions:
REMARK  status: ('A' for Active; 'I' for Inactive)
REMARK    1  A    between atoms: O_1  and  C_2 
REMARK    2  A    between atoms: C_2  and  N_4 
REMARK    3  A    between atoms: C_10  and  N_13 
REMARK       I    between atoms: N_13  and  C_15 
REMARK    4  A    between atoms: C_15  and  C_17 
REMARK    5  A    between atoms: C_19  and  O_20 
REMARK    6  A    between atoms: C_27  and  C_28 
REMARK    7  A    between atoms: C_28  and  C_29 
ROOT
HETATM    1  C   UNL     1       7.715   9.237  22.695  0.00  0.00     0.066 A 
HETATM    2  C   UNL     1       7.735  10.542  22.138  0.00  0.00     0.035 A 
HETATM    3  C   UNL     1       8.732   8.861  23.575  0.00  0.00     0.083 A 
HETATM    4  C   UNL     1       9.847   9.677  23.803  0.00  0.00     0.069 A 
HETATM    5  C   UNL     1       9.860  10.931  23.195  0.00  0.00     0.065 A 
HETATM    6  C   UNL     1       8.831  11.401  22.386  0.00  0.00     0.020 A 
HETATM    7  N   UNL     1      10.764  11.957  23.264  0.00  0.00    -0.277 N 
HETATM    8  H   UNL     1      11.634  11.976  23.781  0.00  0.00     0.189 HD
HETATM    9  N   UNL     1      10.399  13.062  22.598  0.00  0.00    -0.178 NA
HETATM   10  C   UNL     1       9.223  12.734  22.036  0.00  0.00     0.071 A 
ENDROOT
BRANCH   1  11
HETATM   11  C   UNL     1       6.523   8.398  22.372  0.00  0.00     0.260 C 
HETATM   12  N   UNL     1       6.616   7.209  21.599  0.00  0.00    -0.318 N 
HETATM   13  C   UNL     1       7.889   6.574  21.250  0.00  0.00     0.159 C 
HETATM   14  O   UNL     1       5.472   8.840  22.843  0.00  0.00    -0.267 OA
BRANCH  12  15
HETATM   15  C   UNL     1       5.418   6.558  21.089  0.00  0.00     0.039 A 
HETATM   16  C   UNL     1       4.738   7.077  19.976  0.00  0.00     0.059 A 
HETATM   17  C   UNL     1       3.608   6.449  19.463  0.00  0.00     0.040 A 
HETATM   18  N   UNL     1       2.776   6.904  18.419  0.00  0.00    -0.354 N 
HETATM   19  C   UNL     1       3.164   5.257  20.027  0.00  0.00    -0.030 A 
HETATM   20  C   UNL     1       1.944   5.738  18.082  0.00  0.00     0.130 C 
HETATM   21  C   UNL     1       1.960   4.778  19.290  0.00  0.00     0.060 C 
HETATM   22  C   UNL     1       3.798   4.695  21.120  0.00  0.00     0.012 A 
HETATM   23  C   UNL     1       4.922   5.356  21.650  0.00  0.00     0.030 A 
BRANCH  18  24
HETATM   24  C   UNL     1       3.352   7.767  17.406  0.00  0.00     0.216 C 
HETATM   25  C   UNL     1       3.154   7.276  15.982  0.00  0.00     0.063 C 
BRANCH  24  26
HETATM   26  O   UNL     1       2.660   8.997  17.495  0.00  0.00    -0.377 OA
HETATM   27  H   UNL     1       2.704   9.180  18.451  0.00  0.00     0.212 HD
ENDBRANCH  24  26
ENDBRANCH  18  24
ENDBRANCH  12  15
ENDBRANCH   1  11
BRANCH   3  28
HETATM   28  O   UNL     1       8.706   7.708  24.314  0.00  0.00    -0.360 OA
HETATM   29  H   UNL     1       8.863   6.958  23.708  0.00  0.00     0.217 HD
ENDBRANCH   3  28
BRANCH  10  30
HETATM   30  C   UNL     1       8.478  13.768  21.256  0.00  0.00     0.100 C 
BRANCH  30  31
HETATM   31  C   UNL     1       7.308  14.247  22.085  0.00  0.00    -0.052 A 
HETATM   32  C   UNL     1       7.442  15.390  22.884  0.00  0.00     0.007 A 
HETATM   33  C   UNL     1       6.335  15.934  23.537  0.00  0.00     0.001 A 
HETATM   34  C   UNL     1       5.088  15.320  23.434  0.00  0.00     0.007 A 
HETATM   35  C   UNL     1       4.940  14.137  22.703  0.00  0.00    -0.061 A 
HETATM   36  C   UNL     1       6.050  13.616  22.015  0.00  0.00     0.014 A 
HETATM   37  C   UNL     1       3.628  13.410  22.696  0.00  0.00     0.048 C 
ENDBRANCH  30  31
ENDBRANCH  10  30
TORSDOF 7
ENDMDL
MODEL 8
REMARK VINA RESULT:    -8.338      4.294      6.195
REMARK INTER + INTRA:         -12.510
REMARK INTER:                 -11.368
REMARK INTRA:                  -1.142
REMARK UNBOUND:                -1.248
REMARK  7 active torsions:
REMARK  status: ('A' for Active; 'I' for Inactive)
REMARK    1  A    between atoms: O_1  and  C_2 
REMARK    2  A    between atoms: C_2  and  N_4 
REMARK    3  A    between atoms: C_10  and  N_13 
REMARK       I    between atoms: N_13  and  C_15 
REMARK    4  A    between atoms: C_15  and  C_17 
REMARK    5  A    between atoms: C_19  and  O_20 
REMARK    6  A    between atoms: C_27  and  C_28 
REMARK    7  A    between atoms: C_28  and  C_29 
ROOT
HETATM    1  C   UNL     1       7.699  10.226  22.929  0.00  0.00     0.066 A 
HETATM    2  C   UNL     1       7.808  11.597  22.581  0.00  0.00     0.035 A 
HETATM    3  C   UNL     1       8.865   9.470  23.076  0.00  0.00     0.083 A 
HETATM    4  C   UNL     1      10.122   9.986  22.740  0.00  0.00     0.069 A 
HETATM    5  C   UNL     1      10.185  11.321  22.347  0.00  0.00     0.065 A 
HETATM    6  C   UNL     1       9.072  12.152  22.275  0.00  0.00     0.020 A 
HETATM    7  N   UNL     1      11.251  12.113  22.013  0.00  0.00    -0.277 N 
HETATM    8  H   UNL     1      12.227  11.847  21.975  0.00  0.00     0.189 HD
HETATM    9  N   UNL     1      10.933  13.391  21.763  0.00  0.00    -0.178 NA
HETATM   10  C   UNL     1       9.597  13.431  21.900  0.00  0.00     0.071 A 
ENDROOT
BRANCH   1  11
HETATM   11  C   UNL     1       6.324   9.725  23.226  0.00  0.00     0.260 C 
HETATM   12  N   UNL     1       5.450  10.389  24.129  0.00  0.00    -0.318 N 
HETATM   13  C   UNL     1       5.714  11.727  24.666  0.00  0.00     0.159 C 
HETATM   14  O   UNL     1       6.035   8.695  22.611  0.00  0.00    -0.267 OA
BRANCH  12  15
HETATM   15  C   UNL     1       4.228   9.746  24.590  0.00  0.00     0.039 A 
HETATM   16  C   UNL     1       4.269   8.756  25.584  0.00  0.00     0.059 A 
HETATM   17  C   UNL     1       3.106   8.154  26.053  0.00  0.00     0.040 A 
HETATM   18  N   UNL     1       3.004   7.089  26.970  0.00  0.00    -0.354 N 
HETATM   19  C   UNL     1       1.870   8.568  25.566  0.00  0.00    -0.030 A 
HETATM   20  C   UNL     1       1.581   7.062  27.341  0.00  0.00     0.130 C 
HETATM   21  C   UNL     1       0.788   7.792  26.235  0.00  0.00     0.060 C 
HETATM   22  C   UNL     1       1.768   9.545  24.592  0.00  0.00     0.012 A 
HETATM   23  C   UNL     1       2.954  10.125  24.103  0.00  0.00     0.030 A 
BRANCH  18  24
HETATM   24  C   UNL     1       4.064   6.914  27.945  0.00  0.00     0.216 C 
HETATM   25  C   UNL     1       4.029   7.911  29.091  0.00  0.00     0.063 C 
BRANCH  24  26
HETATM   26  O   UNL     1       3.862   5.642  28.526  0.00  0.00    -0.377 OA
HETATM   27  H   UNL     1       3.143   5.825  29.158  0.00  0.00     0.212 HD
ENDBRANCH  24  26
ENDBRANCH  18  24
ENDBRANCH  12  15
ENDBRANCH   1  11
BRANCH   3  28
HETATM   28  O   UNL     1       8.885   8.203  23.594  0.00  0.00    -0.360 OA
HETATM   29  H   UNL     1       9.819   7.925  23.677  0.00  0.00     0.217 HD
ENDBRANCH   3  28
BRANCH  10  30
HETATM   30  C   UNL     1       8.891  14.740  21.754  0.00  0.00     0.100 C 
BRANCH  30  31
HETATM   31  C   UNL     1       7.964  14.923  22.935  0.00  0.00    -0.052 A 
HETATM   32  C   UNL     1       8.463  14.798  24.238  0.00  0.00     0.007 A 
HETATM   33  C   UNL     1       7.663  15.110  25.338  0.00  0.00     0.001 A 
HETATM   34  C   UNL     1       6.341  15.511  25.152  0.00  0.00     0.007 A 
HETATM   35  C   UNL     1       5.795  15.573  23.867  0.00  0.00    -0.061 A 
HETATM   36  C   UNL     1       6.618  15.297  22.761  0.00  0.00     0.014 A 
HETATM   37  C   UNL     1       4.339  15.882  23.677  0.00  0.00     0.048 C 
ENDBRANCH  30  31
ENDBRANCH  10  30
TORSDOF 7
ENDMDL
MODEL 9
REMARK VINA RESULT:    -8.312      2.553      4.582
REMARK INTER + INTRA:         -12.475
REMARK INTER:                 -11.073
REMARK INTRA:                  -1.402
REMARK UNBOUND:                -1.248
REMARK  7 active torsions:
REMARK  status: ('A' for Active; 'I' for Inactive)
REMARK    1  A    between atoms: O_1  and  C_2 
REMARK    2  A    between atoms: C_2  and  N_4 
REMARK    3  A    between atoms: C_10  and  N_13 
REMARK       I    between atoms: N_13  and  C_15 
REMARK    4  A    between atoms: C_15  and  C_17 
REMARK    5  A    between atoms: C_19  and  O_20 
REMARK    6  A    between atoms: C_27  and  C_28 
REMARK    7  A    between atoms: C_28  and  C_29 
ROOT
HETATM    1  C   UNL     1       4.939  12.559  22.268  0.00  0.00     0.066 A 
HETATM    2  C   UNL     1       6.021  13.433  21.989  0.00  0.00     0.035 A 
HETATM    3  C   UNL     1       4.309  12.638  23.513  0.00  0.00     0.083 A 
HETATM    4  C   UNL     1       4.811  13.443  24.541  0.00  0.00     0.069 A 
HETATM    5  C   UNL     1       5.911  14.247  24.249  0.00  0.00     0.065 A 
HETATM    6  C   UNL     1       6.522  14.287  23.000  0.00  0.00     0.020 A 
HETATM    7  N   UNL     1       6.586  15.164  25.011  0.00  0.00    -0.277 N 
HETATM    8  H   UNL     1       6.404  15.416  25.974  0.00  0.00     0.189 HD
HETATM    9  N   UNL     1       7.558  15.817  24.359  0.00  0.00    -0.178 NA
HETATM   10  C   UNL     1       7.547  15.278  23.128  0.00  0.00     0.071 A 
ENDROOT
BRANCH   1  11
HETATM   11  C   UNL     1       4.484  11.689  21.143  0.00  0.00     0.260 C 
HETATM   12  N   UNL     1       5.210  10.540  20.728  0.00  0.00    -0.318 N 
HETATM   13  C   UNL     1       6.323   9.972  21.493  0.00  0.00     0.159 C 
HETATM   14  O   UNL     1       3.430  12.068  20.627  0.00  0.00    -0.267 OA
BRANCH  12  15
HETATM   15  C   UNL     1       4.885   9.866  19.479  0.00  0.00     0.039 A 
HETATM   16  C   UNL     1       4.513   8.512  19.471  0.00  0.00     0.059 A 
HETATM   17  C   UNL     1       4.174   7.864  18.288  0.00  0.00     0.040 A 
HETATM   18  N   UNL     1       3.877   6.496  18.117  0.00  0.00    -0.354 N 
HETATM   19  C   UNL     1       4.154   8.574  17.092  0.00  0.00    -0.030 A 
HETATM   20  C   UNL     1       3.296   6.415  16.768  0.00  0.00     0.130 C 
HETATM   21  C   UNL     1       3.743   7.667  15.983  0.00  0.00     0.060 C 
HETATM   22  C   UNL     1       4.504   9.912  17.040  0.00  0.00     0.012 A 
HETATM   23  C   UNL     1       4.875  10.550  18.239  0.00  0.00     0.030 A 
BRANCH  18  24
HETATM   24  C   UNL     1       3.330   5.764  19.244  0.00  0.00     0.216 C 
HETATM   25  C   UNL     1       1.822   5.587  19.201  0.00  0.00     0.063 C 
BRANCH  24  26
HETATM   26  O   UNL     1       3.879   4.463  19.174  0.00  0.00    -0.377 OA
HETATM   27  H   UNL     1       4.479   4.542  18.410  0.00  0.00     0.212 HD
ENDBRANCH  24  26
ENDBRANCH  18  24
ENDBRANCH  12  15
ENDBRANCH   1  11
BRANCH   3  28
HETATM   28  O   UNL     1       3.144  11.985  23.813  0.00  0.00    -0.360 OA
HETATM   29  H   UNL     1       3.319  11.023  23.781  0.00  0.00     0.217 HD
ENDBRANCH   3  28
BRANCH  10  30
HETATM   30  C   UNL     1       8.476  15.821  22.090  0.00  0.00     0.100 C 
BRANCH  30  31
HETATM   31  C   UNL     1       9.795  15.089  22.193  0.00  0.00    -0.052 A 
HETATM   32  C   UNL     1      10.911  15.737  22.738  0.00  0.00     0.007 A 
HETATM   33  C   UNL     1      12.092  15.035  22.979  0.00  0.00     0.001 A 
HETATM   34  C   UNL     1      12.188  13.686  22.642  0.00  0.00     0.007 A 
HETATM   35  C   UNL     1      11.115  13.032  22.030  0.00  0.00    -0.061 A 
HETATM   36  C   UNL     1       9.914  13.734  21.826  0.00  0.00     0.014 A 
HETATM   37  C   UNL     1      11.262  11.617  21.554  0.00  0.00     0.048 C 
ENDBRANCH  30  31
ENDBRANCH  10  30
TORSDOF 7
ENDMDL
