MODEL 1
REMARK VINA RESULT:    -8.616      0.000      0.000
REMARK INTER + INTRA:         -13.300
REMARK INTER:                 -11.170
REMARK INTRA:                  -2.130
REMARK UNBOUND:                -1.662
REMARK  7 active torsions:
REMARK  status: ('A' for Active; 'I' for Inactive)
REMARK    1  A    between atoms: C_7  and  N_8 
REMARK    2  A    between atoms: C_14  and  C_15 
REMARK    3  A    between atoms: C_16  and  O_17 
REMARK    4  A    between atoms: C_19  and  O_20 
REMARK    5  A    between atoms: C_22  and  C_23 
REMARK       I    between atoms: C_23  and  N_25 
REMARK    6  A    between atoms: N_25  and  C_27 
REMARK    7  A    between atoms: C_27  and  C_28 
ROOT
HETATM    1  C   UNL     1       3.662   7.255  18.433  0.00  0.00     0.046 A 
HETATM    2  C   UNL     1       2.687   8.247  18.392  0.00  0.00     0.082 A 
HETATM    3  C   UNL     1       1.452   7.982  17.791  0.00  0.00     0.075 A 
HETATM    4  C   UNL     1       1.180   6.727  17.220  0.00  0.00     0.084 A 
HETATM    5  C   UNL     1       3.395   6.010  17.793  0.00  0.00     0.038 A 
HETATM    6  C   UNL     1       2.148   5.699  17.217  0.00  0.00     0.066 A 
ENDROOT
BRANCH   1   7
HETATM    7  C   UNL     1       5.001   7.378  19.064  0.00  0.00     0.172 A 
HETATM    8  N   UNL     1       5.485   6.694  20.159  0.00  0.00    -0.244 N 
HETATM    9  C   UNL     1       6.766   7.168  20.350  0.00  0.00     0.349 A 
HETATM   10  O   UNL     1       7.610   6.833  21.168  0.00  0.00    -0.245 OA
HETATM   11  N   UNL     1       6.960   8.133  19.368  0.00  0.00    -0.226 N 
HETATM   12  H   UNL     1       7.808   8.646  19.215  0.00  0.00     0.194 HD
HETATM   13  N   UNL     1       5.859   8.238  18.577  0.00  0.00    -0.151 NA
BRANCH   8  14
HETATM   14  C   UNL     1       4.950   5.701  21.010  0.00  0.00     0.051 A 
HETATM   15  C   UNL     1       4.144   5.961  22.128  0.00  0.00    -0.035 A 
HETATM   16  C   UNL     1       3.641   7.338  22.465  0.00  0.00     0.050 C 
HETATM   17  C   UNL     1       3.631   4.871  22.869  0.00  0.00     0.009 A 
HETATM   18  C   UNL     1       3.867   3.552  22.476  0.00  0.00     0.001 A 
HETATM   19  C   UNL     1       4.609   3.298  21.329  0.00  0.00     0.002 A 
HETATM   20  C   UNL     1       5.141   4.361  20.606  0.00  0.00     0.031 A 
ENDBRANCH   8  14
ENDBRANCH   1   7
BRANCH   2  21
HETATM   21  O   UNL     1       2.831   9.523  18.855  0.00  0.00    -0.360 OA
HETATM   22  H   UNL     1       3.711   9.865  18.638  0.00  0.00     0.217 HD
ENDBRANCH   2  21
BRANCH   6  23
HETATM   23  C   UNL     1       1.754   4.267  16.890  0.00  0.00     0.256 C 
HETATM   24  O   UNL     1       1.643   3.982  15.694  0.00  0.00    -0.267 OA
HETATM   25  N   UNL     1       1.385   3.319  17.867  0.00  0.00    -0.348 N 
HETATM   26  C   UNL     1       1.736   3.386  19.273  0.00  0.00     0.153 C 
BRANCH  25  27
HETATM   27  C   UNL     1       0.611   2.123  17.450  0.00  0.00     0.164 C 
BRANCH  27  28
HETATM   28  C   UNL     1      -0.596   1.838  18.336  0.00  0.00    -0.034 A 
HETATM   29  C   UNL     1      -1.678   2.737  18.250  0.00  0.00     0.009 A 
HETATM   30  C   UNL     1      -2.838   2.569  19.002  0.00  0.00     0.001 A 
HETATM   31  C   UNL     1      -2.955   1.482  19.857  0.00  0.00     0.001 A 
HETATM   32  C   UNL     1      -1.918   0.561  19.940  0.00  0.00     0.007 A 
HETATM   33  C   UNL     1      -0.729   0.718  19.194  0.00  0.00    -0.054 A 
HETATM   34  C   UNL     1       0.299  -0.374  19.315  0.00  0.00     0.049 C 
ENDBRANCH  27  28
ENDBRANCH  25  27
ENDBRANCH   6  23
BRANCH   4  35
HETATM   35  O   UNL     1      -0.052   6.553  16.651  0.00  0.00    -0.360 OA
HETATM   36  H   UNL     1      -0.747   6.833  17.274  0.00  0.00     0.217 HD
ENDBRANCH   4  35
TORSDOF 7
ENDMDL
MODEL 2
REMARK VINA RESULT:    -8.484      7.006     10.103
REMARK INTER + INTRA:         -13.122
REMARK INTER:                 -11.183
REMARK INTRA:                  -1.940
REMARK UNBOUND:                -1.662
REMARK  7 active torsions:
REMARK  status: ('A' for Active; 'I' for Inactive)
REMARK    1  A    between atoms: C_7  and  N_8 
REMARK    2  A    between atoms: C_14  and  C_15 
REMARK    3  A    between atoms: C_16  and  O_17 
REMARK    4  A    between atoms: C_19  and  O_20 
REMARK    5  A    between atoms: C_22  and  C_23 
REMARK       I    between atoms: C_23  and  N_25 
REMARK    6  A    between atoms: N_25  and  C_27 
REMARK    7  A    between atoms: C_27  and  C_28 
ROOT
HETATM    1  C   UNL     1      -1.112  10.087  27.180  0.00  0.00     0.046 A 
HETATM    2  C   UNL     1      -1.176  10.773  28.389  0.00  0.00     0.082 A 
HETATM    3  C   UNL     1      -0.678  10.179  29.552  0.00  0.00     0.075 A 
HETATM    4  C   UNL     1      -0.116   8.892  29.522  0.00  0.00     0.084 A 
HETATM    5  C   UNL     1      -0.598   8.757  27.178  0.00  0.00     0.038 A 
HETATM    6  C   UNL     1      -0.051   8.148  28.323  0.00  0.00     0.066 A 
ENDROOT
BRANCH   1   7
HETATM    7  C   UNL     1      -1.567  10.601  25.863  0.00  0.00     0.172 A 
HETATM    8  N   UNL     1      -0.790  10.967  24.784  0.00  0.00    -0.244 N 
HETATM    9  C   UNL     1      -1.679  11.379  23.815  0.00  0.00     0.349 A 
HETATM   10  O   UNL     1      -1.472  11.751  22.669  0.00  0.00    -0.245 OA
HETATM   11  N   UNL     1      -2.941  11.261  24.387  0.00  0.00    -0.226 N 
HETATM   12  H   UNL     1      -3.811  11.452  23.926  0.00  0.00     0.194 HD
HETATM   13  N   UNL     1      -2.847  10.767  25.651  0.00  0.00    -0.151 NA
BRANCH   8  14
HETATM   14  C   UNL     1       0.601  10.978  24.537  0.00  0.00     0.051 A 
HETATM   15  C   UNL     1       1.371  12.141  24.379  0.00  0.00    -0.035 A 
HETATM   16  C   UNL     1       0.814  13.521  24.596  0.00  0.00     0.050 C 
HETATM   17  C   UNL     1       2.766  12.014  24.184  0.00  0.00     0.009 A 
HETATM   18  C   UNL     1       3.391  10.767  24.202  0.00  0.00     0.001 A 
HETATM   19  C   UNL     1       2.636   9.622  24.428  0.00  0.00     0.002 A 
HETATM   20  C   UNL     1       1.259   9.730  24.594  0.00  0.00     0.031 A 
ENDBRANCH   8  14
ENDBRANCH   1   7
BRANCH   2  21
HETATM   21  O   UNL     1      -1.742  12.001  28.576  0.00  0.00    -0.360 OA
HETATM   22  H   UNL     1      -1.671  12.269  29.506  0.00  0.00     0.217 HD
ENDBRANCH   2  21
BRANCH   6  23
HETATM   23  C   UNL     1       0.827   6.909  28.228  0.00  0.00     0.256 C 
HETATM   24  O   UNL     1       1.888   6.933  28.859  0.00  0.00    -0.267 OA
HETATM   25  N   UNL     1       0.553   5.826  27.367  0.00  0.00    -0.348 N 
HETATM   26  C   UNL     1      -0.747   5.508  26.809  0.00  0.00     0.153 C 
BRANCH  25  27
HETATM   27  C   UNL     1       1.654   4.893  27.018  0.00  0.00     0.164 C 
BRANCH  27  28
HETATM   28  C   UNL     1       2.649   5.470  26.018  0.00  0.00    -0.034 A 
HETATM   29  C   UNL     1       2.169   5.737  24.720  0.00  0.00     0.009 A 
HETATM   30  C   UNL     1       2.986   6.278  23.729  0.00  0.00     0.001 A 
HETATM   31  C   UNL     1       4.309   6.581  24.015  0.00  0.00     0.001 A 
HETATM   32  C   UNL     1       4.803   6.358  25.295  0.00  0.00     0.007 A 
HETATM   33  C   UNL     1       3.995   5.801  26.311  0.00  0.00    -0.054 A 
HETATM   34  C   UNL     1       4.617   5.664  27.674  0.00  0.00     0.049 C 
ENDBRANCH  27  28
ENDBRANCH  25  27
ENDBRANCH   6  23
BRANCH   4  35
HETATM   35  O   UNL     1       0.346   8.383  30.706  0.00  0.00    -0.360 OA
HETATM   36  H   UNL     1      -0.315   8.525  31.408  0.00  0.00     0.217 HD
ENDBRANCH   4  35
TORSDOF 7
ENDMDL
MODEL 3
REMARK VINA RESULT:    -8.358      4.437      8.217
REMARK INTER + INTRA:         -12.952
REMARK INTER:                 -11.462
REMARK INTRA:                  -1.489
REMARK UNBOUND:                -1.662
REMARK  7 active torsions:
REMARK  status: ('A' for Active; 'I' for Inactive)
REMARK    1  A    between atoms: C_7  and  N_8 
REMARK    2  A    between atoms: C_14  and  C_15 
REMARK    3  A    between atoms: C_16  and  O_17 
REMARK    4  A    between atoms: C_19  and  O_20 
REMARK    5  A    between atoms: C_22  and  C_23 
REMARK       I    between atoms: C_23  and  N_25 
REMARK    6  A    between atoms: N_25  and  C_27 
REMARK    7  A    between atoms: C_27  and  C_28 
ROOT
HETATM    1  C   UNL     1       3.369   5.738  23.130  0.00  0.00     0.046 A 
HETATM    2  C   UNL     1       3.924   5.069  24.217  0.00  0.00     0.082 A 
HETATM    3  C   UNL     1       3.992   5.704  25.461  0.00  0.00     0.075 A 
HETATM    4  C   UNL     1       3.511   7.012  25.633  0.00  0.00     0.084 A 
HETATM    5  C   UNL     1       2.944   7.087  23.304  0.00  0.00     0.038 A 
HETATM    6  C   UNL     1       2.961   7.738  24.553  0.00  0.00     0.066 A 
ENDROOT
BRANCH   1   7
HETATM    7  C   UNL     1       3.198   5.183  21.763  0.00  0.00     0.172 A 
HETATM    8  N   UNL     1       3.879   5.535  20.617  0.00  0.00    -0.244 N 
HETATM    9  C   UNL     1       3.352   4.741  19.620  0.00  0.00     0.349 A 
HETATM   10  O   UNL     1       3.663   4.655  18.441  0.00  0.00    -0.245 OA
HETATM   11  N   UNL     1       2.362   3.978  20.229  0.00  0.00    -0.226 N 
HETATM   12  H   UNL     1       1.810   3.272  19.779  0.00  0.00     0.194 HD
HETATM   13  N   UNL     1       2.293   4.260  21.558  0.00  0.00    -0.151 NA
BRANCH   8  14
HETATM   14  C   UNL     1       4.909   6.458  20.333  0.00  0.00     0.051 A 
HETATM   15  C   UNL     1       4.720   7.683  19.675  0.00  0.00    -0.035 A 
HETATM   16  C   UNL     1       3.359   8.214  19.320  0.00  0.00     0.050 C 
HETATM   17  C   UNL     1       5.831   8.540  19.496  0.00  0.00     0.009 A 
HETATM   18  C   UNL     1       7.088   8.215  20.009  0.00  0.00     0.001 A 
HETATM   19  C   UNL     1       7.257   7.033  20.720  0.00  0.00     0.002 A 
HETATM   20  C   UNL     1       6.179   6.169  20.880  0.00  0.00     0.031 A 
ENDBRANCH   8  14
ENDBRANCH   1   7
BRANCH   2  21
HETATM   21  O   UNL     1       4.478   3.823  24.184  0.00  0.00    -0.360 OA
HETATM   22  H   UNL     1       4.448   3.415  25.063  0.00  0.00     0.217 HD
ENDBRANCH   2  21
BRANCH   6  23
HETATM   23  C   UNL     1       2.165   9.011  24.802  0.00  0.00     0.256 C 
HETATM   24  O   UNL     1       2.800  10.070  24.799  0.00  0.00    -0.267 OA
HETATM   25  N   UNL     1       0.802   9.018  25.163  0.00  0.00    -0.348 N 
HETATM   26  C   UNL     1      -0.132   7.934  24.925  0.00  0.00     0.153 C 
BRANCH  25  27
HETATM   27  C   UNL     1       0.236  10.232  25.802  0.00  0.00     0.164 C 
BRANCH  27  28
HETATM   28  C   UNL     1      -0.577  11.101  24.848  0.00  0.00    -0.034 A 
HETATM   29  C   UNL     1      -1.921  10.731  24.637  0.00  0.00     0.009 A 
HETATM   30  C   UNL     1      -2.761  11.459  23.797  0.00  0.00     0.001 A 
HETATM   31  C   UNL     1      -2.282  12.590  23.152  0.00  0.00     0.001 A 
HETATM   32  C   UNL     1      -0.970  12.997  23.366  0.00  0.00     0.007 A 
HETATM   33  C   UNL     1      -0.099  12.269  24.205  0.00  0.00    -0.054 A 
HETATM   34  C   UNL     1       1.279  12.838  24.411  0.00  0.00     0.049 C 
ENDBRANCH  27  28
ENDBRANCH  25  27
ENDBRANCH   6  23
BRANCH   4  35
HETATM   35  O   UNL     1       3.617   7.559  26.883  0.00  0.00    -0.360 OA
HETATM   36  H   UNL     1       3.453   6.876  27.558  0.00  0.00     0.217 HD
ENDBRANCH   4  35
TORSDOF 7
ENDMDL
MODEL 4
REMARK VINA RESULT:    -8.350      3.996      7.584
REMARK INTER + INTRA:         -12.942
REMARK INTER:                 -11.111
REMARK INTRA:                  -1.830
REMARK UNBOUND:                -1.662
REMARK  7 active torsions:
REMARK  status: ('A' for Active; 'I' for Inactive)
REMARK    1  A    between atoms: C_7  and  N_8 
REMARK    2  A    between atoms: C_14  and  C_15 
REMARK    3  A    between atoms: C_16  and  O_17 
REMARK    4  A    between atoms: C_19  and  O_20 
REMARK    5  A    between atoms: C_22  and  C_23 
REMARK       I    between atoms: C_23  and  N_25 
REMARK    6  A    between atoms: N_25  and  C_27 
REMARK    7  A    between atoms: C_27  and  C_28 
ROOT
HETATM    1  C   UNL     1       4.949   5.860  21.635  0.00  0.00     0.046 A 
HETATM    2  C   UNL     1       4.688   4.525  21.341  0.00  0.00     0.082 A 
HETATM    3  C   UNL     1       3.789   3.803  22.132  0.00  0.00     0.075 A 
HETATM    4  C   UNL     1       3.144   4.404  23.226  0.00  0.00     0.084 A 
HETATM    5  C   UNL     1       4.338   6.437  22.786  0.00  0.00     0.038 A 
HETATM    6  C   UNL     1       3.397   5.749  23.577  0.00  0.00     0.066 A 
ENDROOT
BRANCH   1   7
HETATM    7  C   UNL     1       5.849   6.759  20.868  0.00  0.00     0.172 A 
HETATM    8  N   UNL     1       5.551   7.491  19.739  0.00  0.00    -0.244 N 
HETATM    9  C   UNL     1       6.717   8.151  19.412  0.00  0.00     0.349 A 
HETATM   10  O   UNL     1       6.937   8.954  18.517  0.00  0.00    -0.245 OA
HETATM   11  N   UNL     1       7.655   7.748  20.356  0.00  0.00    -0.226 N 
HETATM   12  H   UNL     1       8.601   8.077  20.415  0.00  0.00     0.194 HD
HETATM   13  N   UNL     1       7.092   6.896  21.254  0.00  0.00    -0.151 NA
BRANCH   8  14
HETATM   14  C   UNL     1       4.384   7.661  18.961  0.00  0.00     0.051 A 
HETATM   15  C   UNL     1       3.917   6.735  18.016  0.00  0.00    -0.035 A 
HETATM   16  C   UNL     1       4.541   5.380  17.827  0.00  0.00     0.050 C 
HETATM   17  C   UNL     1       2.705   7.005  17.337  0.00  0.00     0.009 A 
HETATM   18  C   UNL     1       1.947   8.139  17.631  0.00  0.00     0.001 A 
HETATM   19  C   UNL     1       2.377   9.020  18.616  0.00  0.00     0.002 A 
HETATM   20  C   UNL     1       3.580   8.780  19.272  0.00  0.00     0.031 A 
ENDBRANCH   8  14
ENDBRANCH   1   7
BRANCH   2  21
HETATM   21  O   UNL     1       5.279   3.800  20.348  0.00  0.00    -0.360 OA
HETATM   22  H   UNL     1       4.649   3.169  19.966  0.00  0.00     0.217 HD
ENDBRANCH   2  21
BRANCH   6  23
HETATM   23  C   UNL     1       2.481   6.480  24.547  0.00  0.00     0.256 C 
HETATM   24  O   UNL     1       1.298   6.592  24.214  0.00  0.00    -0.267 OA
HETATM   25  N   UNL     1       2.942   7.135  25.708  0.00  0.00    -0.348 N 
HETATM   26  C   UNL     1       4.195   6.858  26.383  0.00  0.00     0.153 C 
BRANCH  25  27
HETATM   27  C   UNL     1       2.080   8.166  26.339  0.00  0.00     0.164 C 
BRANCH  27  28
HETATM   28  C   UNL     1       2.008   9.468  25.550  0.00  0.00    -0.034 A 
HETATM   29  C   UNL     1       3.191   9.894  24.913  0.00  0.00     0.009 A 
HETATM   30  C   UNL     1       3.239  11.061  24.153  0.00  0.00     0.001 A 
HETATM   31  C   UNL     1       2.095  11.832  23.999  0.00  0.00     0.001 A 
HETATM   32  C   UNL     1       0.906  11.421  24.589  0.00  0.00     0.007 A 
HETATM   33  C   UNL     1       0.838  10.247  25.371  0.00  0.00    -0.054 A 
HETATM   34  C   UNL     1      -0.515   9.866  25.909  0.00  0.00     0.049 C 
ENDBRANCH  27  28
ENDBRANCH  25  27
ENDBRANCH   6  23
BRANCH   4  35
HETATM   35  O   UNL     1       2.281   3.626  23.948  0.00  0.00    -0.360 OA
HETATM   36  H   UNL     1       2.375   2.693  23.683  0.00  0.00     0.217 HD
ENDBRANCH   4  35
TORSDOF 7
ENDMDL
MODEL 5
REMARK VINA RESULT:    -8.223      4.277      7.836
REMARK INTER + INTRA:         -12.770
REMARK INTER:                 -11.665
REMARK INTRA:                  -1.105
REMARK UNBOUND:                -1.662
REMARK  7 active torsions:
REMARK  status: ('A' for Active; 'I' for Inactive)
REMARK    1  A    between atoms: C_7  and  N_8 
REMARK    2  A    between atoms: C_14  and  C_15 
REMARK    3  A    between atoms: C_16  and  O_17 
REMARK    4  A    between atoms: C_19  and  O_20 
REMARK    5  A    between atoms: C_22  and  C_23 
REMARK       I    between atoms: C_23  and  N_25 
REMARK    6  A    between atoms: N_25  and  C_27 
REMARK    7  A    between atoms: C_27  and  C_28 
ROOT
HETATM    1  C   UNL     1       4.817   7.357  22.421  0.00  0.00     0.046 A 
HETATM    2  C   UNL     1       5.161   6.383  23.353  0.00  0.00     0.082 A 
HETATM    3  C   UNL     1       4.765   6.528  24.686  0.00  0.00     0.075 A 
HETATM    4  C   UNL     1       4.026   7.648  25.103  0.00  0.00     0.084 A 
HETATM    5  C   UNL     1       4.125   8.518  22.872  0.00  0.00     0.038 A 
HETATM    6  C   UNL     1       3.676   8.673  24.197  0.00  0.00     0.066 A 
ENDROOT
BRANCH   1   7
HETATM    7  C   UNL     1       5.136   7.323  20.970  0.00  0.00     0.172 A 
HETATM    8  N   UNL     1       4.595   6.501  20.005  0.00  0.00    -0.244 N 
HETATM    9  C   UNL     1       5.222   6.855  18.829  0.00  0.00     0.349 A 
HETATM   10  O   UNL     1       5.047   6.440  17.693  0.00  0.00    -0.245 OA
HETATM   11  N   UNL     1       6.126   7.855  19.171  0.00  0.00    -0.226 N 
HETATM   12  H   UNL     1       6.717   8.350  18.529  0.00  0.00     0.194 HD
HETATM   13  N   UNL     1       6.047   8.136  20.499  0.00  0.00    -0.151 NA
BRANCH   8  14
HETATM   14  C   UNL     1       3.616   5.483  20.021  0.00  0.00     0.051 A 
HETATM   15  C   UNL     1       2.296   5.642  19.570  0.00  0.00    -0.035 A 
HETATM   16  C   UNL     1       1.816   6.892  18.885  0.00  0.00     0.050 C 
HETATM   17  C   UNL     1       1.427   4.526  19.594  0.00  0.00     0.009 A 
HETATM   18  C   UNL     1       1.873   3.269  20.003  0.00  0.00     0.001 A 
HETATM   19  C   UNL     1       3.199   3.098  20.383  0.00  0.00     0.002 A 
HETATM   20  C   UNL     1       4.057   4.193  20.389  0.00  0.00     0.031 A 
ENDBRANCH   8  14
ENDBRANCH   1   7
BRANCH   2  21
HETATM   21  O   UNL     1       5.918   5.276  23.103  0.00  0.00    -0.360 OA
HETATM   22  H   UNL     1       5.399   4.469  23.247  0.00  0.00     0.217 HD
ENDBRANCH   2  21
BRANCH   6  23
HETATM   23  C   UNL     1       2.626   9.709  24.570  0.00  0.00     0.256 C 
HETATM   24  O   UNL     1       2.998  10.885  24.611  0.00  0.00    -0.267 OA
HETATM   25  N   UNL     1       1.322   9.377  24.994  0.00  0.00    -0.348 N 
HETATM   26  C   UNL     1       0.649   8.121  24.725  0.00  0.00     0.153 C 
BRANCH  25  27
HETATM   27  C   UNL     1       0.532  10.388  25.741  0.00  0.00     0.164 C 
BRANCH  27  28
HETATM   28  C   UNL     1      -0.460  11.151  24.870  0.00  0.00    -0.034 A 
HETATM   29  C   UNL     1      -1.721  10.556  24.667  0.00  0.00     0.009 A 
HETATM   30  C   UNL     1      -2.711  11.169  23.901  0.00  0.00     0.001 A 
HETATM   31  C   UNL     1      -2.469  12.407  23.325  0.00  0.00     0.001 A 
HETATM   32  C   UNL     1      -1.246  13.034  23.533  0.00  0.00     0.007 A 
HETATM   33  C   UNL     1      -0.226  12.426  24.297  0.00  0.00    -0.054 A 
HETATM   34  C   UNL     1       1.032  13.224  24.509  0.00  0.00     0.049 C 
ENDBRANCH  27  28
ENDBRANCH  25  27
ENDBRANCH   6  23
BRANCH   4  35
HETATM   35  O   UNL     1       3.681   7.712  26.426  0.00  0.00    -0.360 OA
HETATM   36  H   UNL     1       4.204   8.404  26.872  0.00  0.00     0.217 HD
ENDBRANCH   4  35
TORSDOF 7
ENDMDL
MODEL 6
REMARK VINA RESULT:    -8.221      1.612      2.686
REMARK INTER + INTRA:         -12.768
REMARK INTER:                 -10.104
REMARK INTRA:                  -2.663
REMARK UNBOUND:                -1.662
REMARK  7 active torsions:
REMARK  status: ('A' for Active; 'I' for Inactive)
REMARK    1  A    between atoms: C_7  and  N_8 
REMARK    2  A    between atoms: C_14  and  C_15 
REMARK    3  A    between atoms: C_16  and  O_17 
REMARK    4  A    between atoms: C_19  and  O_20 
REMARK    5  A    between atoms: C_22  and  C_23 
REMARK       I    between atoms: C_23  and  N_25 
REMARK    6  A    between atoms: N_25  and  C_27 
REMARK    7  A    between atoms: C_27  and  C_28 
ROOT
HETATM    1  C   UNL     1       3.403   7.169  18.574  0.00  0.00     0.046 A 
HETATM    2  C   UNL     1       2.502   8.206  18.353  0.00  0.00     0.082 A 
HETATM    3  C   UNL     1       1.223   7.922  17.865  0.00  0.00     0.075 A 
HETATM    4  C   UNL     1       0.831   6.601  17.587  0.00  0.00     0.084 A 
HETATM    5  C   UNL     1       3.014   5.842  18.226  0.00  0.00     0.038 A 
HETATM    6  C   UNL     1       1.721   5.519  17.773  0.00  0.00     0.066 A 
ENDROOT
BRANCH   1   7
HETATM    7  C   UNL     1       4.777   7.312  19.119  0.00  0.00     0.172 A 
HETATM    8  N   UNL     1       5.355   6.605  20.152  0.00  0.00    -0.244 N 
HETATM    9  C   UNL     1       6.631   7.114  20.275  0.00  0.00     0.349 A 
HETATM   10  O   UNL     1       7.539   6.777  21.021  0.00  0.00    -0.245 OA
HETATM   11  N   UNL     1       6.729   8.119  19.320  0.00  0.00    -0.226 N 
HETATM   12  H   UNL     1       7.549   8.665  19.130  0.00  0.00     0.194 HD
HETATM   13  N   UNL     1       5.574   8.217  18.609  0.00  0.00    -0.151 NA
BRANCH   8  14
HETATM   14  C   UNL     1       4.910   5.565  20.998  0.00  0.00     0.051 A 
HETATM   15  C   UNL     1       4.215   5.761  22.201  0.00  0.00    -0.035 A 
HETATM   16  C   UNL     1       3.742   7.114  22.656  0.00  0.00     0.050 C 
HETATM   17  C   UNL     1       3.781   4.630  22.931  0.00  0.00     0.009 A 
HETATM   18  C   UNL     1       3.982   3.335  22.449  0.00  0.00     0.001 A 
HETATM   19  C   UNL     1       4.609   3.146  21.224  0.00  0.00     0.002 A 
HETATM   20  C   UNL     1       5.064   4.249  20.509  0.00  0.00     0.031 A 
ENDBRANCH   8  14
ENDBRANCH   1   7
BRANCH   2  21
HETATM   21  O   UNL     1       2.762   9.534  18.526  0.00  0.00    -0.360 OA
HETATM   22  H   UNL     1       1.953  10.009  18.775  0.00  0.00     0.217 HD
ENDBRANCH   2  21
BRANCH   6  23
HETATM   23  C   UNL     1       1.206   4.088  17.775  0.00  0.00     0.256 C 
HETATM   24  O   UNL     1       0.798   3.648  18.854  0.00  0.00    -0.267 OA
HETATM   25  N   UNL     1       1.302   3.225  16.663  0.00  0.00    -0.348 N 
HETATM   26  C   UNL     1       1.466   3.649  15.286  0.00  0.00     0.153 C 
BRANCH  25  27
HETATM   27  C   UNL     1       1.188   1.761  16.881  0.00  0.00     0.164 C 
BRANCH  27  28
HETATM   28  C   UNL     1       2.370   1.162  17.634  0.00  0.00    -0.034 A 
HETATM   29  C   UNL     1       3.652   1.383  17.090  0.00  0.00     0.009 A 
HETATM   30  C   UNL     1       4.805   0.895  17.701  0.00  0.00     0.001 A 
HETATM   31  C   UNL     1       4.709   0.179  18.885  0.00  0.00     0.001 A 
HETATM   32  C   UNL     1       3.462  -0.029  19.462  0.00  0.00     0.007 A 
HETATM   33  C   UNL     1       2.280   0.449  18.854  0.00  0.00    -0.054 A 
HETATM   34  C   UNL     1       0.993   0.220  19.601  0.00  0.00     0.049 C 
ENDBRANCH  27  28
ENDBRANCH  25  27
ENDBRANCH   6  23
BRANCH   4  35
HETATM   35  O   UNL     1      -0.437   6.412  17.111  0.00  0.00    -0.360 OA
HETATM   36  H   UNL     1      -0.451   6.542  16.145  0.00  0.00     0.217 HD
ENDBRANCH   4  35
TORSDOF 7
ENDMDL
MODEL 7
REMARK VINA RESULT:    -8.201      6.861      9.628
REMARK INTER + INTRA:         -12.740
REMARK INTER:                 -10.945
REMARK INTRA:                  -1.794
REMARK UNBOUND:                -1.662
REMARK  7 active torsions:
REMARK  status: ('A' for Active; 'I' for Inactive)
REMARK    1  A    between atoms: C_7  and  N_8 
REMARK    2  A    between atoms: C_14  and  C_15 
REMARK    3  A    between atoms: C_16  and  O_17 
REMARK    4  A    between atoms: C_19  and  O_20 
REMARK    5  A    between atoms: C_22  and  C_23 
REMARK       I    between atoms: C_23  and  N_25 
REMARK    6  A    between atoms: N_25  and  C_27 
REMARK    7  A    between atoms: C_27  and  C_28 
ROOT
HETATM    1  C   UNL     1       3.730   6.710  26.450  0.00  0.00     0.046 A 
HETATM    2  C   UNL     1       4.610   6.395  25.419  0.00  0.00     0.082 A 
HETATM    3  C   UNL     1       4.514   7.065  24.196  0.00  0.00     0.075 A 
HETATM    4  C   UNL     1       3.536   8.052  23.987  0.00  0.00     0.084 A 
HETATM    5  C   UNL     1       2.703   7.666  26.202  0.00  0.00     0.038 A 
HETATM    6  C   UNL     1       2.607   8.388  24.996  0.00  0.00     0.066 A 
ENDROOT
BRANCH   1   7
HETATM    7  C   UNL     1       3.733   6.110  27.809  0.00  0.00     0.172 A 
HETATM    8  N   UNL     1       2.701   5.456  28.447  0.00  0.00    -0.244 N 
HETATM    9  C   UNL     1       3.201   5.098  29.681  0.00  0.00     0.349 A 
HETATM   10  O   UNL     1       2.676   4.461  30.583  0.00  0.00    -0.245 OA
HETATM   11  N   UNL     1       4.501   5.588  29.717  0.00  0.00    -0.226 N 
HETATM   12  H   UNL     1       5.151   5.463  30.471  0.00  0.00     0.194 HD
HETATM   13  N   UNL     1       4.813   6.200  28.543  0.00  0.00    -0.151 NA
BRANCH   8  14
HETATM   14  C   UNL     1       1.376   5.126  28.083  0.00  0.00     0.051 A 
HETATM   15  C   UNL     1       0.258   5.935  28.333  0.00  0.00    -0.035 A 
HETATM   16  C   UNL     1       0.368   7.324  28.898  0.00  0.00     0.050 C 
HETATM   17  C   UNL     1      -1.010   5.509  27.871  0.00  0.00     0.009 A 
HETATM   18  C   UNL     1      -1.155   4.335  27.130  0.00  0.00     0.001 A 
HETATM   19  C   UNL     1      -0.035   3.570  26.826  0.00  0.00     0.002 A 
HETATM   20  C   UNL     1       1.213   3.964  27.296  0.00  0.00     0.031 A 
ENDBRANCH   8  14
ENDBRANCH   1   7
BRANCH   2  21
HETATM   21  O   UNL     1       5.569   5.425  25.461  0.00  0.00    -0.360 OA
HETATM   22  H   UNL     1       5.853   5.189  24.564  0.00  0.00     0.217 HD
ENDBRANCH   2  21
BRANCH   6  23
HETATM   23  C   UNL     1       1.768   9.652  24.886  0.00  0.00     0.256 C 
HETATM   24  O   UNL     1       2.361  10.682  24.550  0.00  0.00    -0.267 OA
HETATM   25  N   UNL     1       0.414   9.724  25.273  0.00  0.00    -0.348 N 
HETATM   26  C   UNL     1      -0.483   8.591  25.395  0.00  0.00     0.153 C 
BRANCH  25  27
HETATM   27  C   UNL     1      -0.184  11.055  25.544  0.00  0.00     0.164 C 
BRANCH  27  28
HETATM   28  C   UNL     1      -0.572  11.818  24.282  0.00  0.00    -0.034 A 
HETATM   29  C   UNL     1      -1.620  11.279  23.507  0.00  0.00     0.009 A 
HETATM   30  C   UNL     1      -2.067  11.898  22.342  0.00  0.00     0.001 A 
HETATM   31  C   UNL     1      -1.485  13.086  21.923  0.00  0.00     0.001 A 
HETATM   32  C   UNL     1      -0.471  13.657  22.683  0.00  0.00     0.007 A 
HETATM   33  C   UNL     1       0.004  13.042  23.862  0.00  0.00    -0.054 A 
HETATM   34  C   UNL     1       1.060  13.783  24.637  0.00  0.00     0.049 C 
ENDBRANCH  27  28
ENDBRANCH  25  27
ENDBRANCH   6  23
BRANCH   4  35
HETATM   35  O   UNL     1       3.511   8.657  22.760  0.00  0.00    -0.360 OA
HETATM   36  H   UNL     1       4.144   9.399  22.743  0.00  0.00     0.217 HD
ENDBRANCH   4  35
TORSDOF 7
ENDMDL
MODEL 8
REMARK VINA RESULT:    -8.191      4.275      7.486
REMARK INTER + INTRA:         -12.726
REMARK INTER:                 -11.099
REMARK INTRA:                  -1.627
REMARK UNBOUND:                -1.662
REMARK  7 active torsions:
REMARK  status: ('A' for Active; 'I' for Inactive)
REMARK    1  A    between atoms: C_7  and  N_8 
REMARK    2  A    between atoms: C_14  and  C_15 
REMARK    3  A    between atoms: C_16  and  O_17 
REMARK    4  A    between atoms: C_19  and  O_20 
REMARK    5  A    between atoms: C_22  and  C_23 
REMARK       I    between atoms: C_23  and  N_25 
REMARK    6  A    between atoms: N_25  and  C_27 
REMARK    7  A    between atoms: C_27  and  C_28 
ROOT
HETATM    1  C   UNL     1       3.461   7.847  24.675  0.00  0.00     0.046 A 
HETATM    2  C   UNL     1       4.170   7.218  25.693  0.00  0.00     0.082 A 
HETATM    3  C   UNL     1       5.161   6.285  25.375  0.00  0.00     0.075 A 
HETATM    4  C   UNL     1       5.451   5.966  24.037  0.00  0.00     0.084 A 
HETATM    5  C   UNL     1       3.721   7.465  23.326  0.00  0.00     0.038 A 
HETATM    6  C   UNL     1       4.740   6.561  22.972  0.00  0.00     0.066 A 
ENDROOT
BRANCH   1   7
HETATM    7  C   UNL     1       2.409   8.880  24.857  0.00  0.00     0.172 A 
HETATM    8  N   UNL     1       1.248   8.783  25.593  0.00  0.00    -0.244 N 
HETATM    9  C   UNL     1       0.614   9.999  25.440  0.00  0.00     0.349 A 
HETATM   10  O   UNL     1      -0.425  10.408  25.937  0.00  0.00    -0.245 OA
HETATM   11  N   UNL     1       1.428  10.743  24.593  0.00  0.00    -0.226 N 
HETATM   12  H   UNL     1       1.263  11.691  24.310  0.00  0.00     0.194 HD
HETATM   13  N   UNL     1       2.539  10.035  24.254  0.00  0.00    -0.151 NA
BRANCH   8  14
HETATM   14  C   UNL     1       0.674   7.768  26.390  0.00  0.00     0.051 A 
HETATM   15  C   UNL     1       0.733   7.728  27.791  0.00  0.00    -0.035 A 
HETATM   16  C   UNL     1       1.304   8.849  28.614  0.00  0.00     0.050 C 
HETATM   17  C   UNL     1       0.072   6.679  28.473  0.00  0.00     0.009 A 
HETATM   18  C   UNL     1      -0.677   5.725  27.783  0.00  0.00     0.001 A 
HETATM   19  C   UNL     1      -0.792   5.807  26.400  0.00  0.00     0.002 A 
HETATM   20  C   UNL     1      -0.125   6.818  25.716  0.00  0.00     0.031 A 
ENDBRANCH   8  14
ENDBRANCH   1   7
BRANCH   2  21
HETATM   21  O   UNL     1       3.959   7.388  27.031  0.00  0.00    -0.360 OA
HETATM   22  H   UNL     1       4.661   7.934  27.419  0.00  0.00     0.217 HD
ENDBRANCH   2  21
BRANCH   6  23
HETATM   23  C   UNL     1       5.257   6.457  21.545  0.00  0.00     0.256 C 
HETATM   24  O   UNL     1       6.313   7.045  21.294  0.00  0.00    -0.267 OA
HETATM   25  N   UNL     1       4.532   5.853  20.497  0.00  0.00    -0.348 N 
HETATM   26  C   UNL     1       3.463   4.888  20.667  0.00  0.00     0.153 C 
BRANCH  25  27
HETATM   27  C   UNL     1       4.894   6.177  19.094  0.00  0.00     0.164 C 
BRANCH  27  28
HETATM   28  C   UNL     1       3.779   6.869  18.320  0.00  0.00    -0.034 A 
HETATM   29  C   UNL     1       3.199   6.150  17.255  0.00  0.00     0.009 A 
HETATM   30  C   UNL     1       2.163   6.678  16.487  0.00  0.00     0.001 A 
HETATM   31  C   UNL     1       1.667   7.941  16.773  0.00  0.00     0.001 A 
HETATM   32  C   UNL     1       2.196   8.662  17.837  0.00  0.00     0.007 A 
HETATM   33  C   UNL     1       3.253   8.150  18.621  0.00  0.00    -0.054 A 
HETATM   34  C   UNL     1       3.704   8.991  19.786  0.00  0.00     0.049 C 
ENDBRANCH  27  28
ENDBRANCH  25  27
ENDBRANCH   6  23
BRANCH   4  35
HETATM   35  O   UNL     1       6.434   5.040  23.814  0.00  0.00    -0.360 OA
HETATM   36  H   UNL     1       6.916   5.259  22.995  0.00  0.00     0.217 HD
ENDBRANCH   4  35
TORSDOF 7
ENDMDL
MODEL 9
REMARK VINA RESULT:    -7.940      3.481      7.059
REMARK INTER + INTRA:         -12.387
REMARK INTER:                 -10.725
REMARK INTRA:                  -1.662
REMARK UNBOUND:                -1.662
REMARK  7 active torsions:
REMARK  status: ('A' for Active; 'I' for Inactive)
REMARK    1  A    between atoms: C_7  and  N_8 
REMARK    2  A    between atoms: C_14  and  C_15 
REMARK    3  A    between atoms: C_16  and  O_17 
REMARK    4  A    between atoms: C_19  and  O_20 
REMARK    5  A    between atoms: C_22  and  C_23 
REMARK       I    between atoms: C_23  and  N_25 
REMARK    6  A    between atoms: N_25  and  C_27 
REMARK    7  A    between atoms: C_27  and  C_28 
ROOT
HETATM    1  C   UNL     1       4.273   6.698  20.569  0.00  0.00     0.046 A 
HETATM    2  C   UNL     1       4.498   7.916  19.937  0.00  0.00     0.082 A 
HETATM    3  C   UNL     1       4.431   9.103  20.674  0.00  0.00     0.075 A 
HETATM    4  C   UNL     1       4.134   9.086  22.047  0.00  0.00     0.084 A 
HETATM    5  C   UNL     1       3.908   6.701  21.947  0.00  0.00     0.038 A 
HETATM    6  C   UNL     1       3.874   7.874  22.725  0.00  0.00     0.066 A 
ENDROOT
BRANCH   1   7
HETATM    7  C   UNL     1       4.344   5.359  19.928  0.00  0.00     0.172 A 
HETATM    8  N   UNL     1       3.517   4.845  18.952  0.00  0.00    -0.244 N 
HETATM    9  C   UNL     1       3.993   3.575  18.702  0.00  0.00     0.349 A 
HETATM   10  O   UNL     1       3.618   2.746  17.886  0.00  0.00    -0.245 OA
HETATM   11  N   UNL     1       5.064   3.396  19.569  0.00  0.00    -0.226 N 
HETATM   12  H   UNL     1       5.650   2.583  19.613  0.00  0.00     0.194 HD
HETATM   13  N   UNL     1       5.270   4.518  20.311  0.00  0.00    -0.151 NA
BRANCH   8  14
HETATM   14  C   UNL     1       2.402   5.349  18.246  0.00  0.00     0.051 A 
HETATM   15  C   UNL     1       1.080   5.305  18.713  0.00  0.00    -0.035 A 
HETATM   16  C   UNL     1       0.720   4.836  20.095  0.00  0.00     0.050 C 
HETATM   17  C   UNL     1       0.059   5.891  17.927  0.00  0.00     0.009 A 
HETATM   18  C   UNL     1       0.352   6.554  16.734  0.00  0.00     0.001 A 
HETATM   19  C   UNL     1       1.671   6.655  16.309  0.00  0.00     0.002 A 
HETATM   20  C   UNL     1       2.681   6.061  17.058  0.00  0.00     0.031 A 
ENDBRANCH   8  14
ENDBRANCH   1   7
BRANCH   2  21
HETATM   21  O   UNL     1       4.741   8.088  18.605  0.00  0.00    -0.360 OA
HETATM   22  H   UNL     1       5.689   7.999  18.419  0.00  0.00     0.217 HD
ENDBRANCH   2  21
BRANCH   6  23
HETATM   23  C   UNL     1       3.866   7.826  24.246  0.00  0.00     0.256 C 
HETATM   24  O   UNL     1       4.889   7.405  24.792  0.00  0.00    -0.267 OA
HETATM   25  N   UNL     1       2.724   8.103  25.026  0.00  0.00    -0.348 N 
HETATM   26  C   UNL     1       1.577   8.874  24.587  0.00  0.00     0.153 C 
BRANCH  25  27
HETATM   27  C   UNL     1       2.679   7.617  26.428  0.00  0.00     0.164 C 
BRANCH  27  28
HETATM   28  C   UNL     1       1.471   6.737  26.731  0.00  0.00    -0.034 A 
HETATM   29  C   UNL     1       1.584   5.367  26.418  0.00  0.00     0.009 A 
HETATM   30  C   UNL     1       0.549   4.468  26.664  0.00  0.00     0.001 A 
HETATM   31  C   UNL     1      -0.630   4.913  27.243  0.00  0.00     0.001 A 
HETATM   32  C   UNL     1      -0.759   6.253  27.591  0.00  0.00     0.007 A 
HETATM   33  C   UNL     1       0.273   7.183  27.342  0.00  0.00    -0.054 A 
HETATM   34  C   UNL     1       0.048   8.593  27.818  0.00  0.00     0.049 C 
ENDBRANCH  27  28
ENDBRANCH  25  27
ENDBRANCH   6  23
BRANCH   4  35
HETATM   35  O   UNL     1       4.086  10.292  22.692  0.00  0.00    -0.360 OA
HETATM   36  H   UNL     1       4.889  10.807  22.491  0.00  0.00     0.217 HD
ENDBRANCH   4  35
TORSDOF 7
ENDMDL
