MODEL 1
REMARK VINA RESULT:    -8.698      0.000      0.000
REMARK INTER + INTRA:         -14.495
REMARK INTER:                 -13.478
REMARK INTRA:                  -1.017
REMARK UNBOUND:                -1.220
REMARK  10 active torsions:
REMARK  status: ('A' for Active; 'I' for Inactive)
REMARK    1  A    between atoms: N_1  and  C_5 
REMARK    2  A    between atoms: C_5  and  C_6 
REMARK    3  A    between atoms: C_6  and  O_7 
REMARK    4  A    between atoms: O_7  and  C_8 
REMARK    5  A    between atoms: C_8  and  C_9 
REMARK    6  A    between atoms: C_14  and  N_15 
REMARK       I    between atoms: N_15  and  C_17 
REMARK    7  A    between atoms: C_17  and  C_19 
REMARK    8  A    between atoms: C_21  and  O_22 
REMARK    9  A    between atoms: C_29  and  C_30 
REMARK   10  A    between atoms: C_30  and  C_31 
ROOT
HETATM    1  C   UNL     1       9.902  14.640  22.237  0.00  0.00     0.066 C 
HETATM    2  C   UNL     1      10.381  13.313  22.275  0.00  0.00     0.035 C 
HETATM    3  C   UNL     1      10.542  15.535  21.356  0.00  0.00     0.083 C 
HETATM    4  C   UNL     1      11.661  15.166  20.596  0.00  0.00     0.069 C 
HETATM    5  C   UNL     1      12.181  13.888  20.810  0.00  0.00     0.065 C 
HETATM    6  C   UNL     1      11.605  12.964  21.671  0.00  0.00     0.020 C 
HETATM    7  N   UNL     1      13.268  13.241  20.280  0.00  0.00    -0.277 N 
HETATM    8  H   UNL     1      13.910  13.590  19.577  0.00  0.00     0.189 HD
HETATM    9  N   UNL     1      13.495  12.026  20.805  0.00  0.00    -0.178 NA
HETATM   10  C   UNL     1      12.524  11.863  21.721  0.00  0.00     0.071 C 
ENDROOT
BRANCH   1  11
HETATM   11  C   UNL     1       8.783  15.154  23.129  0.00  0.00     0.260 C 
HETATM   12  N   UNL     1       7.429  14.708  22.987  0.00  0.00    -0.318 N 
HETATM   13  C   UNL     1       7.054  13.783  21.922  0.00  0.00     0.159 C 
HETATM   14  O   UNL     1       9.165  15.878  24.059  0.00  0.00    -0.267 OA
BRANCH  12  15
HETATM   15  C   UNL     1       6.369  15.116  23.903  0.00  0.00     0.037 A 
HETATM   16  C   UNL     1       5.251  15.845  23.443  0.00  0.00     0.030 A 
HETATM   17  C   UNL     1       4.168  16.172  24.274  0.00  0.00     0.011 A 
HETATM   18  C   UNL     1       4.161  15.761  25.599  0.00  0.00    -0.035 A 
HETATM   19  C   UNL     1       5.287  15.117  26.108  0.00  0.00     0.011 A 
HETATM   20  C   UNL     1       6.372  14.801  25.272  0.00  0.00     0.030 A 
BRANCH  18  21
HETATM   21  C   UNL     1       2.892  15.892  26.397  0.00  0.00     0.206 C 
BRANCH  21  22
HETATM   22  O   UNL     1       2.327  14.581  26.628  0.00  0.00    -0.385 OA
BRANCH  22  23
HETATM   23  C   UNL     1       1.784  14.007  25.428  0.00  0.00     0.195 C 
BRANCH  23  24
HETATM   24  C   UNL     1       0.329  13.634  25.690  0.00  0.00     0.255 C 
BRANCH  24  25
HETATM   25  N   UNL     1      -0.388  13.543  24.386  0.00  0.00    -0.077 N 
HETATM   26  H   UNL     1      -1.401  13.502  24.581  0.00  0.00     0.274 HD
HETATM   27  H   UNL     1      -0.230  14.375  23.804  0.00  0.00     0.274 HD
HETATM   28  H   UNL     1      -0.121  12.708  23.851  0.00  0.00     0.274 HD
ENDBRANCH  24  25
ENDBRANCH  23  24
ENDBRANCH  22  23
ENDBRANCH  21  22
ENDBRANCH  18  21
ENDBRANCH  12  15
ENDBRANCH   1  11
BRANCH   3  29
HETATM   29  O   UNL     1      10.125  16.832  21.166  0.00  0.00    -0.360 OA
HETATM   30  H   UNL     1      10.770  17.271  20.569  0.00  0.00     0.217 HD
ENDBRANCH   3  29
BRANCH  10  31
HETATM   31  C   UNL     1      12.548  10.644  22.625  0.00  0.00     0.100 C 
BRANCH  31  32
HETATM   32  C   UNL     1      11.484  10.750  23.727  0.00  0.00    -0.052 A 
HETATM   33  C   UNL     1      11.718  11.408  24.944  0.00  0.00     0.007 A 
HETATM   34  C   UNL     1      10.734  11.503  25.930  0.00  0.00     0.001 A 
HETATM   35  C   UNL     1       9.514  10.862  25.769  0.00  0.00     0.007 A 
HETATM   36  C   UNL     1       9.279  10.081  24.633  0.00  0.00    -0.061 A 
HETATM   37  C   UNL     1      10.248  10.061  23.602  0.00  0.00     0.014 A 
HETATM   38  C   UNL     1       8.006   9.280  24.571  0.00  0.00     0.048 C 
ENDBRANCH  31  32
ENDBRANCH  10  31
TORSDOF 10
ENDMDL
MODEL 2
REMARK VINA RESULT:    -8.522      2.884      4.554
REMARK INTER + INTRA:         -14.226
REMARK INTER:                 -13.042
REMARK INTRA:                  -1.184
REMARK UNBOUND:                -1.220
REMARK  10 active torsions:
REMARK  status: ('A' for Active; 'I' for Inactive)
REMARK    1  A    between atoms: N_1  and  C_5 
REMARK    2  A    between atoms: C_5  and  C_6 
REMARK    3  A    between atoms: C_6  and  O_7 
REMARK    4  A    between atoms: O_7  and  C_8 
REMARK    5  A    between atoms: C_8  and  C_9 
REMARK    6  A    between atoms: C_14  and  N_15 
REMARK       I    between atoms: N_15  and  C_17 
REMARK    7  A    between atoms: C_17  and  C_19 
REMARK    8  A    between atoms: C_21  and  O_22 
REMARK    9  A    between atoms: C_29  and  C_30 
REMARK   10  A    between atoms: C_30  and  C_31 
ROOT
HETATM    1  C   UNL     1       7.852  14.998  24.922  0.00  0.00     0.066 C 
HETATM    2  C   UNL     1       8.709  15.468  23.904  0.00  0.00     0.035 C 
HETATM    3  C   UNL     1       8.451  14.537  26.112  0.00  0.00     0.083 C 
HETATM    4  C   UNL     1       9.842  14.464  26.270  0.00  0.00     0.069 C 
HETATM    5  C   UNL     1      10.625  14.787  25.161  0.00  0.00     0.065 C 
HETATM    6  C   UNL     1      10.098  15.237  23.959  0.00  0.00     0.020 C 
HETATM    7  N   UNL     1      11.983  14.778  24.965  0.00  0.00    -0.277 N 
HETATM    8  H   UNL     1      12.702  14.545  25.641  0.00  0.00     0.189 HD
HETATM    9  N   UNL     1      12.360  15.081  23.713  0.00  0.00    -0.178 NA
HETATM   10  C   UNL     1      11.208  15.295  23.052  0.00  0.00     0.071 C 
ENDROOT
BRANCH   1  11
HETATM   11  C   UNL     1       6.341  14.916  24.775  0.00  0.00     0.260 C 
HETATM   12  N   UNL     1       5.715  14.088  23.787  0.00  0.00    -0.318 N 
HETATM   13  C   UNL     1       6.516  13.335  22.826  0.00  0.00     0.159 C 
HETATM   14  O   UNL     1       5.710  15.515  25.657  0.00  0.00    -0.267 OA
BRANCH  12  15
HETATM   15  C   UNL     1       4.267  13.922  23.706  0.00  0.00     0.037 A 
HETATM   16  C   UNL     1       3.692  12.652  23.487  0.00  0.00     0.030 A 
HETATM   17  C   UNL     1       2.305  12.439  23.497  0.00  0.00     0.011 A 
HETATM   18  C   UNL     1       1.442  13.496  23.746  0.00  0.00    -0.035 A 
HETATM   19  C   UNL     1       1.972  14.778  23.879  0.00  0.00     0.011 A 
HETATM   20  C   UNL     1       3.362  14.985  23.858  0.00  0.00     0.030 A 
BRANCH  18  21
HETATM   21  C   UNL     1      -0.011  13.206  24.009  0.00  0.00     0.206 C 
BRANCH  21  22
HETATM   22  O   UNL     1      -0.468  12.167  23.111  0.00  0.00    -0.385 OA
BRANCH  22  23
HETATM   23  C   UNL     1      -1.136  11.104  23.810  0.00  0.00     0.195 C 
BRANCH  23  24
HETATM   24  C   UNL     1      -2.626  11.423  23.858  0.00  0.00     0.255 C 
BRANCH  24  25
HETATM   25  N   UNL     1      -3.004  12.153  22.614  0.00  0.00    -0.077 N 
HETATM   26  H   UNL     1      -2.373  12.964  22.515  0.00  0.00     0.274 HD
HETATM   27  H   UNL     1      -2.876  11.572  21.777  0.00  0.00     0.274 HD
HETATM   28  H   UNL     1      -3.973  12.491  22.639  0.00  0.00     0.274 HD
ENDBRANCH  24  25
ENDBRANCH  23  24
ENDBRANCH  22  23
ENDBRANCH  21  22
ENDBRANCH  18  21
ENDBRANCH  12  15
ENDBRANCH   1  11
BRANCH   3  29
HETATM   29  O   UNL     1       7.729  14.126  27.208  0.00  0.00    -0.360 OA
HETATM   30  H   UNL     1       8.143  13.304  27.550  0.00  0.00     0.217 HD
ENDBRANCH   3  29
BRANCH  10  31
HETATM   31  C   UNL     1      11.241  15.528  21.552  0.00  0.00     0.100 C 
BRANCH  31  32
HETATM   32  C   UNL     1      10.390  14.486  20.811  0.00  0.00    -0.052 A 
HETATM   33  C   UNL     1       9.221  14.823  20.111  0.00  0.00     0.007 A 
HETATM   34  C   UNL     1       8.467  13.863  19.434  0.00  0.00     0.001 A 
HETATM   35  C   UNL     1       8.806  12.521  19.512  0.00  0.00     0.007 A 
HETATM   36  C   UNL     1       9.884  12.116  20.306  0.00  0.00    -0.061 A 
HETATM   37  C   UNL     1      10.692  13.103  20.918  0.00  0.00     0.014 A 
HETATM   38  C   UNL     1      10.121  10.641  20.486  0.00  0.00     0.048 C 
ENDBRANCH  31  32
ENDBRANCH  10  31
TORSDOF 10
ENDMDL
MODEL 3
REMARK VINA RESULT:    -8.466      2.743      4.058
REMARK INTER + INTRA:         -14.141
REMARK INTER:                 -12.904
REMARK INTRA:                  -1.238
REMARK UNBOUND:                -1.220
REMARK  10 active torsions:
REMARK  status: ('A' for Active; 'I' for Inactive)
REMARK    1  A    between atoms: N_1  and  C_5 
REMARK    2  A    between atoms: C_5  and  C_6 
REMARK    3  A    between atoms: C_6  and  O_7 
REMARK    4  A    between atoms: O_7  and  C_8 
REMARK    5  A    between atoms: C_8  and  C_9 
REMARK    6  A    between atoms: C_14  and  N_15 
REMARK       I    between atoms: N_15  and  C_17 
REMARK    7  A    between atoms: C_17  and  C_19 
REMARK    8  A    between atoms: C_21  and  O_22 
REMARK    9  A    between atoms: C_29  and  C_30 
REMARK   10  A    between atoms: C_30  and  C_31 
ROOT
HETATM    1  C   UNL     1       9.017  13.913  25.732  0.00  0.00     0.066 C 
HETATM    2  C   UNL     1       9.827  13.059  24.952  0.00  0.00     0.035 C 
HETATM    3  C   UNL     1       9.635  14.594  26.801  0.00  0.00     0.083 C 
HETATM    4  C   UNL     1      10.979  14.388  27.143  0.00  0.00     0.069 C 
HETATM    5  C   UNL     1      11.671  13.406  26.433  0.00  0.00     0.065 C 
HETATM    6  C   UNL     1      11.119  12.693  25.378  0.00  0.00     0.020 C 
HETATM    7  N   UNL     1      12.954  12.931  26.541  0.00  0.00    -0.277 N 
HETATM    8  H   UNL     1      13.677  13.248  27.178  0.00  0.00     0.189 HD
HETATM    9  N   UNL     1      13.233  11.907  25.719  0.00  0.00    -0.178 NA
HETATM   10  C   UNL     1      12.090  11.692  25.043  0.00  0.00     0.071 C 
ENDROOT
BRANCH   1  11
HETATM   11  C   UNL     1       7.523  14.084  25.511  0.00  0.00     0.260 C 
HETATM   12  N   UNL     1       6.981  14.501  24.252  0.00  0.00    -0.318 N 
HETATM   13  C   UNL     1       7.859  14.849  23.139  0.00  0.00     0.159 C 
HETATM   14  O   UNL     1       6.821  13.708  26.461  0.00  0.00    -0.267 OA
BRANCH  12  15
HETATM   15  C   UNL     1       5.545  14.569  24.000  0.00  0.00     0.037 A 
HETATM   16  C   UNL     1       4.823  13.424  23.602  0.00  0.00     0.030 A 
HETATM   17  C   UNL     1       3.428  13.428  23.443  0.00  0.00     0.011 A 
HETATM   18  C   UNL     1       2.704  14.583  23.695  0.00  0.00    -0.035 A 
HETATM   19  C   UNL     1       3.395  15.754  24.004  0.00  0.00     0.011 A 
HETATM   20  C   UNL     1       4.792  15.744  24.152  0.00  0.00     0.030 A 
BRANCH  18  21
HETATM   21  C   UNL     1       1.203  14.503  23.771  0.00  0.00     0.206 C 
BRANCH  21  22
HETATM   22  O   UNL     1       0.767  13.187  23.356  0.00  0.00    -0.385 OA
BRANCH  22  23
HETATM   23  C   UNL     1      -0.576  12.904  23.781  0.00  0.00     0.195 C 
BRANCH  23  24
HETATM   24  C   UNL     1      -1.406  12.553  22.551  0.00  0.00     0.255 C 
BRANCH  24  25
HETATM   25  N   UNL     1      -2.791  12.214  22.984  0.00  0.00    -0.077 N 
HETATM   26  H   UNL     1      -2.780  12.064  24.005  0.00  0.00     0.274 HD
HETATM   27  H   UNL     1      -3.447  12.984  22.804  0.00  0.00     0.274 HD
HETATM   28  H   UNL     1      -3.144  11.364  22.530  0.00  0.00     0.274 HD
ENDBRANCH  24  25
ENDBRANCH  23  24
ENDBRANCH  22  23
ENDBRANCH  21  22
ENDBRANCH  18  21
ENDBRANCH  12  15
ENDBRANCH   1  11
BRANCH   3  29
HETATM   29  O   UNL     1       8.979  15.511  27.588  0.00  0.00    -0.360 OA
HETATM   30  H   UNL     1       8.959  16.365  27.103  0.00  0.00     0.217 HD
ENDBRANCH   3  29
BRANCH  10  31
HETATM   31  C   UNL     1      11.989  10.499  24.109  0.00  0.00     0.100 C 
BRANCH  31  32
HETATM   32  C   UNL     1      12.135  10.929  22.642  0.00  0.00    -0.052 A 
HETATM   33  C   UNL     1      13.382  11.143  22.036  0.00  0.00     0.007 A 
HETATM   34  C   UNL     1      13.495  11.522  20.698  0.00  0.00     0.001 A 
HETATM   35  C   UNL     1      12.360  11.791  19.947  0.00  0.00     0.007 A 
HETATM   36  C   UNL     1      11.095  11.723  20.540  0.00  0.00    -0.061 A 
HETATM   37  C   UNL     1      10.988  11.255  21.870  0.00  0.00     0.014 A 
HETATM   38  C   UNL     1       9.907  12.172  19.734  0.00  0.00     0.048 C 
ENDBRANCH  31  32
ENDBRANCH  10  31
TORSDOF 10
ENDMDL
MODEL 4
REMARK VINA RESULT:    -8.435      2.754      3.593
REMARK INTER + INTRA:         -14.094
REMARK INTER:                 -13.581
REMARK INTRA:                  -0.513
REMARK UNBOUND:                -1.220
REMARK  10 active torsions:
REMARK  status: ('A' for Active; 'I' for Inactive)
REMARK    1  A    between atoms: N_1  and  C_5 
REMARK    2  A    between atoms: C_5  and  C_6 
REMARK    3  A    between atoms: C_6  and  O_7 
REMARK    4  A    between atoms: O_7  and  C_8 
REMARK    5  A    between atoms: C_8  and  C_9 
REMARK    6  A    between atoms: C_14  and  N_15 
REMARK       I    between atoms: N_15  and  C_17 
REMARK    7  A    between atoms: C_17  and  C_19 
REMARK    8  A    between atoms: C_21  and  O_22 
REMARK    9  A    between atoms: C_29  and  C_30 
REMARK   10  A    between atoms: C_30  and  C_31 
ROOT
HETATM    1  C   UNL     1       8.642  12.353  21.766  0.00  0.00     0.066 C 
HETATM    2  C   UNL     1       9.785  12.951  22.337  0.00  0.00     0.035 C 
HETATM    3  C   UNL     1       8.810  11.670  20.545  0.00  0.00     0.083 C 
HETATM    4  C   UNL     1      10.037  11.639  19.866  0.00  0.00     0.069 C 
HETATM    5  C   UNL     1      11.079  12.394  20.406  0.00  0.00     0.065 C 
HETATM    6  C   UNL     1      10.976  13.097  21.598  0.00  0.00     0.020 C 
HETATM    7  N   UNL     1      12.364  12.617  19.980  0.00  0.00    -0.277 N 
HETATM    8  H   UNL     1      12.819  12.227  19.161  0.00  0.00     0.189 HD
HETATM    9  N   UNL     1      13.054  13.482  20.739  0.00  0.00    -0.178 NA
HETATM   10  C   UNL     1      12.192  13.851  21.704  0.00  0.00     0.071 C 
ENDROOT
BRANCH   1  11
HETATM   11  C   UNL     1       7.251  12.457  22.370  0.00  0.00     0.260 C 
HETATM   12  N   UNL     1       6.559  13.707  22.479  0.00  0.00    -0.318 N 
HETATM   13  C   UNL     1       7.199  14.954  22.072  0.00  0.00     0.159 C 
HETATM   14  O   UNL     1       6.726  11.365  22.631  0.00  0.00    -0.267 OA
BRANCH  12  15
HETATM   15  C   UNL     1       5.184  13.803  22.960  0.00  0.00     0.037 A 
HETATM   16  C   UNL     1       4.653  15.034  23.401  0.00  0.00     0.030 A 
HETATM   17  C   UNL     1       3.310  15.185  23.780  0.00  0.00     0.011 A 
HETATM   18  C   UNL     1       2.444  14.103  23.714  0.00  0.00    -0.035 A 
HETATM   19  C   UNL     1       2.957  12.854  23.368  0.00  0.00     0.011 A 
HETATM   20  C   UNL     1       4.304  12.709  22.998  0.00  0.00     0.030 A 
BRANCH  18  21
HETATM   21  C   UNL     1       0.967  14.340  23.873  0.00  0.00     0.206 C 
BRANCH  21  22
HETATM   22  O   UNL     1       0.299  13.081  24.125  0.00  0.00    -0.385 OA
BRANCH  22  23
HETATM   23  C   UNL     1      -0.688  12.783  23.124  0.00  0.00     0.195 C 
BRANCH  23  24
HETATM   24  C   UNL     1      -1.987  12.407  23.828  0.00  0.00     0.255 C 
BRANCH  24  25
HETATM   25  N   UNL     1      -3.019  12.090  22.800  0.00  0.00    -0.077 N 
HETATM   26  H   UNL     1      -3.597  12.933  22.656  0.00  0.00     0.274 HD
HETATM   27  H   UNL     1      -2.596  11.861  21.892  0.00  0.00     0.274 HD
HETATM   28  H   UNL     1      -3.630  11.317  23.086  0.00  0.00     0.274 HD
ENDBRANCH  24  25
ENDBRANCH  23  24
ENDBRANCH  22  23
ENDBRANCH  21  22
ENDBRANCH  18  21
ENDBRANCH  12  15
ENDBRANCH   1  11
BRANCH   3  29
HETATM   29  O   UNL     1       7.796  10.979  19.923  0.00  0.00    -0.360 OA
HETATM   30  H   UNL     1       8.103  10.056  19.782  0.00  0.00     0.217 HD
ENDBRANCH   3  29
BRANCH  10  31
HETATM   31  C   UNL     1      12.587  14.946  22.679  0.00  0.00     0.100 C 
BRANCH  31  32
HETATM   32  C   UNL     1      11.691  14.928  23.926  0.00  0.00    -0.052 A 
HETATM   33  C   UNL     1      10.521  15.695  24.028  0.00  0.00     0.007 A 
HETATM   34  C   UNL     1       9.713  15.657  25.166  0.00  0.00     0.001 A 
HETATM   35  C   UNL     1      10.098  14.920  26.276  0.00  0.00     0.007 A 
HETATM   36  C   UNL     1      11.322  14.244  26.277  0.00  0.00    -0.061 A 
HETATM   37  C   UNL     1      12.091  14.219  25.090  0.00  0.00     0.014 A 
HETATM   38  C   UNL     1      11.772  13.587  27.554  0.00  0.00     0.048 C 
ENDBRANCH  31  32
ENDBRANCH  10  31
TORSDOF 10
ENDMDL
MODEL 5
REMARK VINA RESULT:    -8.343      5.183      7.472
REMARK INTER + INTRA:         -13.953
REMARK INTER:                 -12.511
REMARK INTRA:                  -1.442
REMARK UNBOUND:                -1.220
REMARK  10 active torsions:
REMARK  status: ('A' for Active; 'I' for Inactive)
REMARK    1  A    between atoms: N_1  and  C_5 
REMARK    2  A    between atoms: C_5  and  C_6 
REMARK    3  A    between atoms: C_6  and  O_7 
REMARK    4  A    between atoms: O_7  and  C_8 
REMARK    5  A    between atoms: C_8  and  C_9 
REMARK    6  A    between atoms: C_14  and  N_15 
REMARK       I    between atoms: N_15  and  C_17 
REMARK    7  A    between atoms: C_17  and  C_19 
REMARK    8  A    between atoms: C_21  and  O_22 
REMARK    9  A    between atoms: C_29  and  C_30 
REMARK   10  A    between atoms: C_30  and  C_31 
ROOT
HETATM    1  C   UNL     1       8.320  10.532  22.998  0.00  0.00     0.066 C 
HETATM    2  C   UNL     1       8.257  11.406  24.104  0.00  0.00     0.035 C 
HETATM    3  C   UNL     1       9.380  10.715  22.087  0.00  0.00     0.083 C 
HETATM    4  C   UNL     1      10.302  11.764  22.212  0.00  0.00     0.069 C 
HETATM    5  C   UNL     1      10.078  12.688  23.234  0.00  0.00     0.065 C 
HETATM    6  C   UNL     1       9.048  12.571  24.156  0.00  0.00     0.020 C 
HETATM    7  N   UNL     1      10.745  13.830  23.598  0.00  0.00    -0.277 N 
HETATM    8  H   UNL     1      11.584  14.214  23.178  0.00  0.00     0.189 HD
HETATM    9  N   UNL     1      10.169  14.507  24.604  0.00  0.00    -0.178 NA
HETATM   10  C   UNL     1       9.075  13.788  24.917  0.00  0.00     0.071 C 
ENDROOT
BRANCH   1  11
HETATM   11  C   UNL     1       7.282   9.458  22.717  0.00  0.00     0.260 C 
HETATM   12  N   UNL     1       6.016   9.758  22.118  0.00  0.00    -0.318 N 
HETATM   13  C   UNL     1       5.642  11.136  21.812  0.00  0.00     0.159 C 
HETATM   14  O   UNL     1       7.676   8.302  22.927  0.00  0.00    -0.267 OA
BRANCH  12  15
HETATM   15  C   UNL     1       5.056   8.722  21.750  0.00  0.00     0.037 A 
HETATM   16  C   UNL     1       4.158   8.193  22.701  0.00  0.00     0.030 A 
HETATM   17  C   UNL     1       3.159   7.266  22.364  0.00  0.00     0.011 A 
HETATM   18  C   UNL     1       3.015   6.848  21.049  0.00  0.00    -0.035 A 
HETATM   19  C   UNL     1       3.941   7.284  20.102  0.00  0.00     0.011 A 
HETATM   20  C   UNL     1       4.943   8.204  20.450  0.00  0.00     0.030 A 
BRANCH  18  21
HETATM   21  C   UNL     1       1.791   6.064  20.662  0.00  0.00     0.206 C 
BRANCH  21  22
HETATM   22  O   UNL     1       1.328   6.500  19.362  0.00  0.00    -0.385 OA
BRANCH  22  23
HETATM   23  C   UNL     1       0.740   5.426  18.610  0.00  0.00     0.195 C 
BRANCH  23  24
HETATM   24  C   UNL     1       1.459   5.329  17.270  0.00  0.00     0.255 C 
BRANCH  24  25
HETATM   25  N   UNL     1       2.283   6.555  17.074  0.00  0.00    -0.077 N 
HETATM   26  H   UNL     1       2.361   6.729  16.060  0.00  0.00     0.274 HD
HETATM   27  H   UNL     1       1.838   7.385  17.485  0.00  0.00     0.274 HD
HETATM   28  H   UNL     1       3.227   6.457  17.465  0.00  0.00     0.274 HD
ENDBRANCH  24  25
ENDBRANCH  23  24
ENDBRANCH  22  23
ENDBRANCH  21  22
ENDBRANCH  18  21
ENDBRANCH  12  15
ENDBRANCH   1  11
BRANCH   3  29
HETATM   29  O   UNL     1       9.601   9.886  21.012  0.00  0.00    -0.360 OA
HETATM   30  H   UNL     1       9.980  10.428  20.286  0.00  0.00     0.217 HD
ENDBRANCH   3  29
BRANCH  10  31
HETATM   31  C   UNL     1       8.089  14.333  25.934  0.00  0.00     0.100 C 
BRANCH  31  32
HETATM   32  C   UNL     1       6.808  14.835  25.250  0.00  0.00    -0.052 A 
HETATM   33  C   UNL     1       6.755  15.162  23.887  0.00  0.00     0.007 A 
HETATM   34  C   UNL     1       5.579  15.606  23.282  0.00  0.00     0.001 A 
HETATM   35  C   UNL     1       4.439  15.826  24.041  0.00  0.00     0.007 A 
HETATM   36  C   UNL     1       4.475  15.643  25.427  0.00  0.00    -0.061 A 
HETATM   37  C   UNL     1       5.645  15.112  26.017  0.00  0.00     0.014 A 
HETATM   38  C   UNL     1       3.265  16.041  26.229  0.00  0.00     0.048 C 
ENDBRANCH  31  32
ENDBRANCH  10  31
TORSDOF 10
ENDMDL
MODEL 6
REMARK VINA RESULT:    -8.299      2.681      4.576
REMARK INTER + INTRA:         -13.885
REMARK INTER:                 -12.322
REMARK INTRA:                  -1.563
REMARK UNBOUND:                -1.220
REMARK  10 active torsions:
REMARK  status: ('A' for Active; 'I' for Inactive)
REMARK    1  A    between atoms: N_1  and  C_5 
REMARK    2  A    between atoms: C_5  and  C_6 
REMARK    3  A    between atoms: C_6  and  O_7 
REMARK    4  A    between atoms: O_7  and  C_8 
REMARK    5  A    between atoms: C_8  and  C_9 
REMARK    6  A    between atoms: C_14  and  N_15 
REMARK       I    between atoms: N_15  and  C_17 
REMARK    7  A    between atoms: C_17  and  C_19 
REMARK    8  A    between atoms: C_21  and  O_22 
REMARK    9  A    between atoms: C_29  and  C_30 
REMARK   10  A    between atoms: C_30  and  C_31 
ROOT
HETATM    1  C   UNL     1       8.335  11.750  24.886  0.00  0.00     0.066 C 
HETATM    2  C   UNL     1       9.486  12.548  25.063  0.00  0.00     0.035 C 
HETATM    3  C   UNL     1       8.530  10.368  24.687  0.00  0.00     0.083 C 
HETATM    4  C   UNL     1       9.807   9.798  24.588  0.00  0.00     0.069 C 
HETATM    5  C   UNL     1      10.895  10.672  24.605  0.00  0.00     0.065 C 
HETATM    6  C   UNL     1      10.772  12.042  24.787  0.00  0.00     0.020 C 
HETATM    7  N   UNL     1      12.244  10.456  24.486  0.00  0.00    -0.277 N 
HETATM    8  H   UNL     1      12.720   9.566  24.384  0.00  0.00     0.189 HD
HETATM    9  N   UNL     1      12.982  11.577  24.471  0.00  0.00    -0.178 NA
HETATM   10  C   UNL     1      12.087  12.576  24.579  0.00  0.00     0.071 C 
ENDROOT
BRANCH   1  11
HETATM   11  C   UNL     1       6.923  12.312  24.843  0.00  0.00     0.260 C 
HETATM   12  N   UNL     1       6.345  12.831  23.639  0.00  0.00    -0.318 N 
HETATM   13  C   UNL     1       7.124  12.904  22.407  0.00  0.00     0.159 C 
HETATM   14  O   UNL     1       6.283  12.160  25.893  0.00  0.00    -0.267 OA
BRANCH  12  15
HETATM   15  C   UNL     1       4.957  13.276  23.564  0.00  0.00     0.037 A 
HETATM   16  C   UNL     1       3.927  12.385  23.195  0.00  0.00     0.030 A 
HETATM   17  C   UNL     1       2.572  12.750  23.203  0.00  0.00     0.011 A 
HETATM   18  C   UNL     1       2.200  14.026  23.602  0.00  0.00    -0.035 A 
HETATM   19  C   UNL     1       3.197  14.957  23.888  0.00  0.00     0.011 A 
HETATM   20  C   UNL     1       4.552  14.585  23.868  0.00  0.00     0.030 A 
BRANCH  18  21
HETATM   21  C   UNL     1       0.745  14.318  23.852  0.00  0.00     0.206 C 
BRANCH  21  22
HETATM   22  O   UNL     1      -0.068  13.299  23.224  0.00  0.00    -0.385 OA
BRANCH  22  23
HETATM   23  C   UNL     1      -1.069  12.781  24.115  0.00  0.00     0.195 C 
BRANCH  23  24
HETATM   24  C   UNL     1      -1.759  11.606  23.432  0.00  0.00     0.255 C 
BRANCH  24  25
HETATM   25  N   UNL     1      -3.055  12.071  22.862  0.00  0.00    -0.077 N 
HETATM   26  H   UNL     1      -3.179  13.063  23.117  0.00  0.00     0.274 HD
HETATM   27  H   UNL     1      -3.060  12.025  21.836  0.00  0.00     0.274 HD
HETATM   28  H   UNL     1      -3.854  11.536  23.222  0.00  0.00     0.274 HD
ENDBRANCH  24  25
ENDBRANCH  23  24
ENDBRANCH  22  23
ENDBRANCH  21  22
ENDBRANCH  18  21
ENDBRANCH  12  15
ENDBRANCH   1  11
BRANCH   3  29
HETATM   29  O   UNL     1       7.493   9.470  24.578  0.00  0.00    -0.360 OA
HETATM   30  H   UNL     1       7.842   8.658  24.150  0.00  0.00     0.217 HD
ENDBRANCH   3  29
BRANCH  10  31
HETATM   31  C   UNL     1      12.555  14.014  24.453  0.00  0.00     0.100 C 
BRANCH  31  32
HETATM   32  C   UNL     1      11.649  14.811  23.503  0.00  0.00    -0.052 A 
HETATM   33  C   UNL     1      11.116  16.065  23.839  0.00  0.00     0.007 A 
HETATM   34  C   UNL     1      10.304  16.780  22.957  0.00  0.00     0.001 A 
HETATM   35  C   UNL     1       9.922  16.221  21.746  0.00  0.00     0.007 A 
HETATM   36  C   UNL     1      10.315  14.920  21.420  0.00  0.00    -0.061 A 
HETATM   37  C   UNL     1      11.208  14.238  22.280  0.00  0.00     0.014 A 
HETATM   38  C   UNL     1       9.752  14.298  20.171  0.00  0.00     0.048 C 
ENDBRANCH  31  32
ENDBRANCH  10  31
TORSDOF 10
ENDMDL
MODEL 7
REMARK VINA RESULT:    -8.113      2.671      3.438
REMARK INTER + INTRA:         -13.602
REMARK INTER:                 -12.673
REMARK INTRA:                  -0.929
REMARK UNBOUND:                -1.220
REMARK  10 active torsions:
REMARK  status: ('A' for Active; 'I' for Inactive)
REMARK    1  A    between atoms: N_1  and  C_5 
REMARK    2  A    between atoms: C_5  and  C_6 
REMARK    3  A    between atoms: C_6  and  O_7 
REMARK    4  A    between atoms: O_7  and  C_8 
REMARK    5  A    between atoms: C_8  and  C_9 
REMARK    6  A    between atoms: C_14  and  N_15 
REMARK       I    between atoms: N_15  and  C_17 
REMARK    7  A    between atoms: C_17  and  C_19 
REMARK    8  A    between atoms: C_21  and  O_22 
REMARK    9  A    between atoms: C_29  and  C_30 
REMARK   10  A    between atoms: C_30  and  C_31 
ROOT
HETATM    1  C   UNL     1       8.843  12.386  21.968  0.00  0.00     0.066 C 
HETATM    2  C   UNL     1       9.974  12.974  22.573  0.00  0.00     0.035 C 
HETATM    3  C   UNL     1       9.036  11.727  20.736  0.00  0.00     0.083 C 
HETATM    4  C   UNL     1      10.276  11.712  20.081  0.00  0.00     0.069 C 
HETATM    5  C   UNL     1      11.307  12.456  20.657  0.00  0.00     0.065 C 
HETATM    6  C   UNL     1      11.179  13.135  21.860  0.00  0.00     0.020 C 
HETATM    7  N   UNL     1      12.600  12.688  20.261  0.00  0.00    -0.277 N 
HETATM    8  H   UNL     1      13.071  12.315  19.444  0.00  0.00     0.189 HD
HETATM    9  N   UNL     1      13.273  13.538  21.052  0.00  0.00    -0.178 NA
HETATM   10  C   UNL     1      12.392  13.888  22.006  0.00  0.00     0.071 C 
ENDROOT
BRANCH   1  11
HETATM   11  C   UNL     1       7.440  12.477  22.545  0.00  0.00     0.260 C 
HETATM   12  N   UNL     1       6.658  13.675  22.463  0.00  0.00    -0.318 N 
HETATM   13  C   UNL     1       7.212  14.890  21.875  0.00  0.00     0.159 C 
HETATM   14  O   UNL     1       6.991  11.401  22.966  0.00  0.00    -0.267 OA
BRANCH  12  15
HETATM   15  C   UNL     1       5.274  13.741  22.921  0.00  0.00     0.037 A 
HETATM   16  C   UNL     1       4.761  14.913  23.518  0.00  0.00     0.030 A 
HETATM   17  C   UNL     1       3.413  15.046  23.883  0.00  0.00     0.011 A 
HETATM   18  C   UNL     1       2.523  14.009  23.646  0.00  0.00    -0.035 A 
HETATM   19  C   UNL     1       3.014  12.807  23.140  0.00  0.00     0.011 A 
HETATM   20  C   UNL     1       4.367  12.677  22.785  0.00  0.00     0.030 A 
BRANCH  18  21
HETATM   21  C   UNL     1       1.048  14.262  23.803  0.00  0.00     0.206 C 
BRANCH  21  22
HETATM   22  O   UNL     1       0.383  13.033  24.179  0.00  0.00    -0.385 OA
BRANCH  22  23
HETATM   23  C   UNL     1      -0.604  12.635  23.213  0.00  0.00     0.195 C 
BRANCH  23  24
HETATM   24  C   UNL     1      -1.981  12.752  23.856  0.00  0.00     0.255 C 
BRANCH  24  25
HETATM   25  N   UNL     1      -3.017  12.393  22.847  0.00  0.00    -0.077 N 
HETATM   26  H   UNL     1      -2.553  12.304  21.930  0.00  0.00     0.274 HD
HETATM   27  H   UNL     1      -3.451  11.484  23.051  0.00  0.00     0.274 HD
HETATM   28  H   UNL     1      -3.755  13.104  22.776  0.00  0.00     0.274 HD
ENDBRANCH  24  25
ENDBRANCH  23  24
ENDBRANCH  22  23
ENDBRANCH  21  22
ENDBRANCH  18  21
ENDBRANCH  12  15
ENDBRANCH   1  11
BRANCH   3  29
HETATM   29  O   UNL     1       8.036  11.048  20.081  0.00  0.00    -0.360 OA
HETATM   30  H   UNL     1       8.355  10.842  19.175  0.00  0.00     0.217 HD
ENDBRANCH   3  29
BRANCH  10  31
HETATM   31  C   UNL     1      12.766  14.963  23.010  0.00  0.00     0.100 C 
BRANCH  31  32
HETATM   32  C   UNL     1      12.350  14.561  24.433  0.00  0.00    -0.052 A 
HETATM   33  C   UNL     1      13.062  13.621  25.193  0.00  0.00     0.007 A 
HETATM   34  C   UNL     1      12.675  13.278  26.490  0.00  0.00     0.001 A 
HETATM   35  C   UNL     1      11.508  13.795  27.033  0.00  0.00     0.007 A 
HETATM   36  C   UNL     1      10.690  14.632  26.268  0.00  0.00    -0.061 A 
HETATM   37  C   UNL     1      11.135  15.042  24.990  0.00  0.00     0.014 A 
HETATM   38  C   UNL     1       9.360  15.044  26.840  0.00  0.00     0.048 C 
ENDBRANCH  31  32
ENDBRANCH  10  31
TORSDOF 10
ENDMDL
MODEL 8
REMARK VINA RESULT:    -8.041      2.645      3.595
REMARK INTER + INTRA:         -13.492
REMARK INTER:                 -12.451
REMARK INTRA:                  -1.041
REMARK UNBOUND:                -1.220
REMARK  10 active torsions:
REMARK  status: ('A' for Active; 'I' for Inactive)
REMARK    1  A    between atoms: N_1  and  C_5 
REMARK    2  A    between atoms: C_5  and  C_6 
REMARK    3  A    between atoms: C_6  and  O_7 
REMARK    4  A    between atoms: O_7  and  C_8 
REMARK    5  A    between atoms: C_8  and  C_9 
REMARK    6  A    between atoms: C_14  and  N_15 
REMARK       I    between atoms: N_15  and  C_17 
REMARK    7  A    between atoms: C_17  and  C_19 
REMARK    8  A    between atoms: C_21  and  O_22 
REMARK    9  A    between atoms: C_29  and  C_30 
REMARK   10  A    between atoms: C_30  and  C_31 
ROOT
HETATM    1  C   UNL     1       8.896  14.274  25.492  0.00  0.00     0.066 C 
HETATM    2  C   UNL     1       9.781  13.757  24.521  0.00  0.00     0.035 C 
HETATM    3  C   UNL     1       9.460  14.751  26.693  0.00  0.00     0.083 C 
HETATM    4  C   UNL     1      10.832  14.654  26.967  0.00  0.00     0.069 C 
HETATM    5  C   UNL     1      11.620  13.980  26.033  0.00  0.00     0.065 C 
HETATM    6  C   UNL     1      11.126  13.478  24.837  0.00  0.00     0.020 C 
HETATM    7  N   UNL     1      12.956  13.674  26.014  0.00  0.00    -0.277 N 
HETATM    8  H   UNL     1      13.656  13.921  26.706  0.00  0.00     0.189 HD
HETATM    9  N   UNL     1      13.336  12.930  24.962  0.00  0.00    -0.178 NA
HETATM   10  C   UNL     1      12.206  12.732  24.259  0.00  0.00     0.071 C 
ENDROOT
BRANCH   1  11
HETATM   11  C   UNL     1       7.385  14.288  25.328  0.00  0.00     0.260 C 
HETATM   12  N   UNL     1       6.755  14.668  24.099  0.00  0.00    -0.318 N 
HETATM   13  C   UNL     1       7.549  15.129  22.964  0.00  0.00     0.159 C 
HETATM   14  O   UNL     1       6.764  13.820  26.293  0.00  0.00    -0.267 OA
BRANCH  12  15
HETATM   15  C   UNL     1       5.312  14.585  23.899  0.00  0.00     0.037 A 
HETATM   16  C   UNL     1       4.714  13.410  23.394  0.00  0.00     0.030 A 
HETATM   17  C   UNL     1       3.324  13.260  23.278  0.00  0.00     0.011 A 
HETATM   18  C   UNL     1       2.478  14.282  23.682  0.00  0.00    -0.035 A 
HETATM   19  C   UNL     1       3.038  15.488  24.102  0.00  0.00     0.011 A 
HETATM   20  C   UNL     1       4.431  15.634  24.207  0.00  0.00     0.030 A 
BRANCH  18  21
HETATM   21  C   UNL     1       1.003  14.010  23.793  0.00  0.00     0.206 C 
BRANCH  21  22
HETATM   22  O   UNL     1       0.682  12.786  23.091  0.00  0.00    -0.385 OA
BRANCH  22  23
HETATM   23  C   UNL     1      -0.625  12.831  22.496  0.00  0.00     0.195 C 
BRANCH  23  24
HETATM   24  C   UNL     1      -1.577  12.020  23.367  0.00  0.00     0.255 C 
BRANCH  24  25
HETATM   25  N   UNL     1      -2.954  12.127  22.806  0.00  0.00    -0.077 N 
HETATM   26  H   UNL     1      -3.481  11.286  23.088  0.00  0.00     0.274 HD
HETATM   27  H   UNL     1      -3.461  12.936  23.188  0.00  0.00     0.274 HD
HETATM   28  H   UNL     1      -2.955  12.189  21.782  0.00  0.00     0.274 HD
ENDBRANCH  24  25
ENDBRANCH  23  24
ENDBRANCH  22  23
ENDBRANCH  21  22
ENDBRANCH  18  21
ENDBRANCH  12  15
ENDBRANCH   1  11
BRANCH   3  29
HETATM   29  O   UNL     1       8.720  15.348  27.687  0.00  0.00    -0.360 OA
HETATM   30  H   UNL     1       8.337  14.638  28.246  0.00  0.00     0.217 HD
ENDBRANCH   3  29
BRANCH  10  31
HETATM   31  C   UNL     1      12.227  11.802  23.060  0.00  0.00     0.100 C 
BRANCH  31  32
HETATM   32  C   UNL     1      10.845  11.178  22.817  0.00  0.00    -0.052 A 
HETATM   33  C   UNL     1      10.021  11.557  21.747  0.00  0.00     0.007 A 
HETATM   34  C   UNL     1       8.772  10.970  21.536  0.00  0.00     0.001 A 
HETATM   35  C   UNL     1       8.266  10.051  22.444  0.00  0.00     0.007 A 
HETATM   36  C   UNL     1       8.989   9.738  23.600  0.00  0.00    -0.061 A 
HETATM   37  C   UNL     1      10.289  10.272  23.760  0.00  0.00     0.014 A 
HETATM   38  C   UNL     1       8.336   8.858  24.631  0.00  0.00     0.048 C 
ENDBRANCH  31  32
ENDBRANCH  10  31
TORSDOF 10
ENDMDL
MODEL 9
REMARK VINA RESULT:    -7.995      2.606      3.744
REMARK INTER + INTRA:         -13.422
REMARK INTER:                 -12.202
REMARK INTRA:                  -1.220
REMARK UNBOUND:                -1.220
REMARK  10 active torsions:
REMARK  status: ('A' for Active; 'I' for Inactive)
REMARK    1  A    between atoms: N_1  and  C_5 
REMARK    2  A    between atoms: C_5  and  C_6 
REMARK    3  A    between atoms: C_6  and  O_7 
REMARK    4  A    between atoms: O_7  and  C_8 
REMARK    5  A    between atoms: C_8  and  C_9 
REMARK    6  A    between atoms: C_14  and  N_15 
REMARK       I    between atoms: N_15  and  C_17 
REMARK    7  A    between atoms: C_17  and  C_19 
REMARK    8  A    between atoms: C_21  and  O_22 
REMARK    9  A    between atoms: C_29  and  C_30 
REMARK   10  A    between atoms: C_30  and  C_31 
ROOT
HETATM    1  C   UNL     1       8.756  11.472  22.303  0.00  0.00     0.066 C 
HETATM    2  C   UNL     1       9.903  11.689  23.096  0.00  0.00     0.035 C 
HETATM    3  C   UNL     1       8.948  10.892  21.032  0.00  0.00     0.083 C 
HETATM    4  C   UNL     1      10.223  10.608  20.523  0.00  0.00     0.069 C 
HETATM    5  C   UNL     1      11.317  11.004  21.293  0.00  0.00     0.065 C 
HETATM    6  C   UNL     1      11.197  11.589  22.547  0.00  0.00     0.020 C 
HETATM    7  N   UNL     1      12.669  10.922  21.075  0.00  0.00    -0.277 N 
HETATM    8  H   UNL     1      13.141  10.509  20.278  0.00  0.00     0.189 HD
HETATM    9  N   UNL     1      13.417  11.496  22.031  0.00  0.00    -0.178 NA
HETATM   10  C   UNL     1      12.527  11.983  22.914  0.00  0.00     0.071 C 
ENDROOT
BRANCH   1  11
HETATM   11  C   UNL     1       7.354  11.878  22.726  0.00  0.00     0.260 C 
HETATM   12  N   UNL     1       6.873  13.220  22.580  0.00  0.00    -0.318 N 
HETATM   13  C   UNL     1       7.745  14.277  22.076  0.00  0.00     0.159 C 
HETATM   14  O   UNL     1       6.634  10.933  23.077  0.00  0.00    -0.267 OA
BRANCH  12  15
HETATM   15  C   UNL     1       5.497  13.597  22.886  0.00  0.00     0.037 A 
HETATM   16  C   UNL     1       4.444  12.665  22.767  0.00  0.00     0.030 A 
HETATM   17  C   UNL     1       3.125  12.962  23.142  0.00  0.00     0.011 A 
HETATM   18  C   UNL     1       2.817  14.208  23.670  0.00  0.00    -0.035 A 
HETATM   19  C   UNL     1       3.815  15.180  23.720  0.00  0.00     0.011 A 
HETATM   20  C   UNL     1       5.131  14.877  23.333  0.00  0.00     0.030 A 
BRANCH  18  21
HETATM   21  C   UNL     1       1.468  14.420  24.303  0.00  0.00     0.206 C 
BRANCH  21  22
HETATM   22  O   UNL     1       0.443  13.842  23.462  0.00  0.00    -0.385 OA
BRANCH  22  23
HETATM   23  C   UNL     1      -0.620  13.255  24.232  0.00  0.00     0.195 C 
BRANCH  23  24
HETATM   24  C   UNL     1      -0.079  12.009  24.924  0.00  0.00     0.255 C 
BRANCH  24  25
HETATM   25  N   UNL     1       0.152  10.950  23.901  0.00  0.00    -0.077 N 
HETATM   26  H   UNL     1       0.124  11.394  22.970  0.00  0.00     0.274 HD
HETATM   27  H   UNL     1       1.081  10.521  23.998  0.00  0.00     0.274 HD
HETATM   28  H   UNL     1      -0.560  10.212  23.936  0.00  0.00     0.274 HD
ENDBRANCH  24  25
ENDBRANCH  23  24
ENDBRANCH  22  23
ENDBRANCH  21  22
ENDBRANCH  18  21
ENDBRANCH  12  15
ENDBRANCH   1  11
BRANCH   3  29
HETATM   29  O   UNL     1       7.911  10.557  20.193  0.00  0.00    -0.360 OA
HETATM   30  H   UNL     1       8.286  10.395  19.300  0.00  0.00     0.217 HD
ENDBRANCH   3  29
BRANCH  10  31
HETATM   31  C   UNL     1      13.015  12.833  24.073  0.00  0.00     0.100 C 
BRANCH  31  32
HETATM   32  C   UNL     1      11.990  13.918  24.435  0.00  0.00    -0.052 A 
HETATM   33  C   UNL     1      11.176  13.841  25.575  0.00  0.00     0.007 A 
HETATM   34  C   UNL     1      10.258  14.843  25.893  0.00  0.00     0.001 A 
HETATM   35  C   UNL     1      10.058  15.911  25.031  0.00  0.00     0.007 A 
HETATM   36  C   UNL     1      10.747  15.968  23.815  0.00  0.00    -0.061 A 
HETATM   37  C   UNL     1      11.736  14.994  23.543  0.00  0.00     0.014 A 
HETATM   38  C   UNL     1      10.387  17.058  22.843  0.00  0.00     0.048 C 
ENDBRANCH  31  32
ENDBRANCH  10  31
TORSDOF 10
ENDMDL
