MODEL 1
REMARK VINA RESULT:    -9.583      0.000      0.000
REMARK INTER + INTRA:         -13.577
REMARK INTER:                 -12.321
REMARK INTRA:                  -1.256
REMARK UNBOUND:                -0.914
REMARK  6 active torsions:
REMARK  status: ('A' for Active; 'I' for Inactive)
REMARK       I    between atoms: C_2  and  N_3 
REMARK    1  A    between atoms: C_2  and  C_17 
REMARK    2  A    between atoms: N_3  and  C_5 
REMARK    3  A    between atoms: C_8  and  N_9 
REMARK    4  A    between atoms: C_18  and  O_19 
REMARK    5  A    between atoms: C_25  and  C_26 
REMARK    6  A    between atoms: C_26  and  C_27 
ROOT
HETATM    1  C   UNL     1      -2.782  13.283  21.777  0.00  0.00     0.066 A 
HETATM    2  C   UNL     1      -4.128  13.584  22.068  0.00  0.00     0.083 A 
HETATM    3  C   UNL     1      -4.737  14.779  21.661  0.00  0.00     0.069 A 
HETATM    4  C   UNL     1      -3.946  15.674  20.938  0.00  0.00     0.065 A 
HETATM    5  N   UNL     1      -4.198  16.923  20.437  0.00  0.00    -0.277 N 
HETATM    6  H   UNL     1      -5.055  17.458  20.519  0.00  0.00     0.189 HD
HETATM    7  N   UNL     1      -3.143  17.494  19.823  0.00  0.00    -0.178 NA
HETATM    8  C   UNL     1      -2.164  16.587  19.944  0.00  0.00     0.067 A 
HETATM    9  C   UNL     1      -2.610  15.434  20.651  0.00  0.00     0.019 A 
HETATM   10  C   UNL     1      -2.006  14.253  21.126  0.00  0.00     0.035 A 
ENDROOT
BRANCH   1  11
HETATM   11  C   UNL     1      -2.183  12.011  22.292  0.00  0.00     0.260 C 
HETATM   12  O   UNL     1      -2.585  11.016  21.687  0.00  0.00    -0.267 OA
HETATM   13  N   UNL     1      -1.265  11.983  23.369  0.00  0.00    -0.318 N 
HETATM   14  C   UNL     1      -0.630  13.196  23.902  0.00  0.00     0.159 C 
BRANCH  13  15
HETATM   15  C   UNL     1      -0.830  10.734  23.979  0.00  0.00     0.037 A 
HETATM   16  C   UNL     1      -1.379  10.205  25.153  0.00  0.00     0.032 A 
HETATM   17  C   UNL     1      -0.929   8.986  25.708  0.00  0.00     0.031 A 
HETATM   18  C   UNL     1       0.100   8.246  25.124  0.00  0.00     0.030 A 
HETATM   19  C   UNL     1       0.636   8.768  23.943  0.00  0.00     0.031 A 
HETATM   20  C   UNL     1       0.191   9.977  23.387  0.00  0.00     0.032 A 
BRANCH  18  21
HETATM   21  N   UNL     1       0.553   7.030  25.605  0.00  0.00    -0.377 N 
HETATM   22  C   UNL     1       1.245   6.051  24.749  0.00  0.00     0.149 C 
HETATM   23  C   UNL     1       2.138   5.165  25.643  0.00  0.00     0.187 C 
HETATM   24  O   UNL     1       1.386   4.522  26.690  0.00  0.00    -0.388 OA
HETATM   25  C   UNL     1       0.727   5.505  27.509  0.00  0.00     0.187 C 
HETATM   26  C   UNL     1      -0.226   6.372  26.676  0.00  0.00     0.149 C 
ENDBRANCH  18  21
ENDBRANCH  13  15
ENDBRANCH   1  11
BRANCH   2  27
HETATM   27  O   UNL     1      -4.932  12.747  22.806  0.00  0.00    -0.360 OA
HETATM   28  H   UNL     1      -5.761  13.241  23.007  0.00  0.00     0.217 HD
ENDBRANCH   2  27
BRANCH   8  29
HETATM   29  C   UNL     1      -0.755  16.903  19.565  0.00  0.00     0.066 C 
BRANCH  29  30
HETATM   30  C   UNL     1       0.202  17.556  20.585  0.00  0.00    -0.009 C 
HETATM   31  C   UNL     1      -0.024  17.224  22.077  0.00  0.00     0.005 C 
HETATM   32  C   UNL     1       1.050  16.403  22.800  0.00  0.00     0.000 C 
HETATM   33  C   UNL     1       2.464  16.636  22.291  0.00  0.00     0.000 C 
HETATM   34  C   UNL     1       2.505  16.460  20.784  0.00  0.00     0.000 C 
HETATM   35  C   UNL     1       1.666  17.542  20.128  0.00  0.00     0.005 C 
ENDBRANCH  29  30
ENDBRANCH   8  29
TORSDOF 6
ENDMDL
MODEL 2
REMARK VINA RESULT:    -8.943      2.066      2.701
REMARK INTER + INTRA:         -12.732
REMARK INTER:                 -11.452
REMARK INTRA:                  -1.280
REMARK UNBOUND:                -0.914
REMARK  6 active torsions:
REMARK  status: ('A' for Active; 'I' for Inactive)
REMARK       I    between atoms: C_2  and  N_3 
REMARK    1  A    between atoms: C_2  and  C_17 
REMARK    2  A    between atoms: N_3  and  C_5 
REMARK    3  A    between atoms: C_8  and  N_9 
REMARK    4  A    between atoms: C_18  and  O_19 
REMARK    5  A    between atoms: C_25  and  C_26 
REMARK    6  A    between atoms: C_26  and  C_27 
ROOT
HETATM    1  C   UNL     1      -2.482  14.108  22.828  0.00  0.00     0.066 A 
HETATM    2  C   UNL     1      -3.658  14.165  22.052  0.00  0.00     0.083 A 
HETATM    3  C   UNL     1      -3.812  15.058  20.984  0.00  0.00     0.069 A 
HETATM    4  C   UNL     1      -2.734  15.902  20.708  0.00  0.00     0.065 A 
HETATM    5  N   UNL     1      -2.563  16.903  19.790  0.00  0.00    -0.277 N 
HETATM    6  H   UNL     1      -3.239  17.238  19.112  0.00  0.00     0.189 HD
HETATM    7  N   UNL     1      -1.371  17.526  19.867  0.00  0.00    -0.178 NA
HETATM    8  C   UNL     1      -0.750  16.916  20.886  0.00  0.00     0.067 A 
HETATM    9  C   UNL     1      -1.568  15.901  21.459  0.00  0.00     0.019 A 
HETATM   10  C   UNL     1      -1.464  15.036  22.567  0.00  0.00     0.035 A 
ENDROOT
BRANCH   1  11
HETATM   11  C   UNL     1      -2.410  13.166  23.989  0.00  0.00     0.260 C 
HETATM   12  O   UNL     1      -2.965  13.607  24.997  0.00  0.00    -0.267 OA
HETATM   13  N   UNL     1      -1.756  11.913  23.914  0.00  0.00    -0.318 N 
HETATM   14  C   UNL     1      -1.320  11.321  22.643  0.00  0.00     0.159 C 
BRANCH  13  15
HETATM   15  C   UNL     1      -1.533  11.087  25.093  0.00  0.00     0.037 A 
HETATM   16  C   UNL     1      -2.509  10.830  26.063  0.00  0.00     0.032 A 
HETATM   17  C   UNL     1      -2.250  10.019  27.191  0.00  0.00     0.031 A 
HETATM   18  C   UNL     1      -1.001   9.437  27.408  0.00  0.00     0.030 A 
HETATM   19  C   UNL     1      -0.032   9.682  26.430  0.00  0.00     0.031 A 
HETATM   20  C   UNL     1      -0.285  10.485  25.308  0.00  0.00     0.032 A 
BRANCH  18  21
HETATM   21  N   UNL     1      -0.705   8.605  28.474  0.00  0.00    -0.377 N 
HETATM   22  C   UNL     1      -0.032   9.090  29.691  0.00  0.00     0.149 C 
HETATM   23  C   UNL     1      -0.408   8.157  30.862  0.00  0.00     0.187 C 
HETATM   24  O   UNL     1      -0.085   6.782  30.584  0.00  0.00    -0.388 OA
HETATM   25  C   UNL     1      -0.761   6.339  29.393  0.00  0.00     0.187 C 
HETATM   26  C   UNL     1      -0.368   7.195  28.181  0.00  0.00     0.149 C 
ENDBRANCH  18  21
ENDBRANCH  13  15
ENDBRANCH   1  11
BRANCH   2  27
HETATM   27  O   UNL     1      -4.755  13.376  22.310  0.00  0.00    -0.360 OA
HETATM   28  H   UNL     1      -4.509  12.451  22.078  0.00  0.00     0.217 HD
ENDBRANCH   2  27
BRANCH   8  29
HETATM   29  C   UNL     1       0.537  17.434  21.439  0.00  0.00     0.066 C 
BRANCH  29  30
HETATM   30  C   UNL     1       1.879  16.798  21.023  0.00  0.00    -0.009 C 
HETATM   31  C   UNL     1       2.958  16.647  22.119  0.00  0.00     0.005 C 
HETATM   32  C   UNL     1       3.338  15.229  22.561  0.00  0.00     0.000 C 
HETATM   33  C   UNL     1       3.236  14.183  21.462  0.00  0.00     0.000 C 
HETATM   34  C   UNL     1       1.866  14.248  20.812  0.00  0.00     0.000 C 
HETATM   35  C   UNL     1       1.708  15.581  20.104  0.00  0.00     0.005 C 
ENDBRANCH  29  30
ENDBRANCH   8  29
TORSDOF 6
ENDMDL
MODEL 3
REMARK VINA RESULT:    -8.914      1.748      2.401
REMARK INTER + INTRA:         -12.694
REMARK INTER:                 -11.160
REMARK INTRA:                  -1.534
REMARK UNBOUND:                -0.914
REMARK  6 active torsions:
REMARK  status: ('A' for Active; 'I' for Inactive)
REMARK       I    between atoms: C_2  and  N_3 
REMARK    1  A    between atoms: C_2  and  C_17 
REMARK    2  A    between atoms: N_3  and  C_5 
REMARK    3  A    between atoms: C_8  and  N_9 
REMARK    4  A    between atoms: C_18  and  O_19 
REMARK    5  A    between atoms: C_25  and  C_26 
REMARK    6  A    between atoms: C_26  and  C_27 
ROOT
HETATM    1  C   UNL     1      -1.974  13.901  22.218  0.00  0.00     0.066 A 
HETATM    2  C   UNL     1      -3.062  13.997  21.325  0.00  0.00     0.083 A 
HETATM    3  C   UNL     1      -3.187  15.043  20.401  0.00  0.00     0.069 A 
HETATM    4  C   UNL     1      -2.171  16.001  20.394  0.00  0.00     0.065 A 
HETATM    5  N   UNL     1      -2.000  17.152  19.673  0.00  0.00    -0.277 N 
HETATM    6  H   UNL     1      -2.629  17.544  18.980  0.00  0.00     0.189 HD
HETATM    7  N   UNL     1      -0.887  17.843  19.990  0.00  0.00    -0.178 NA
HETATM    8  C   UNL     1      -0.322  17.120  20.967  0.00  0.00     0.067 A 
HETATM    9  C   UNL     1      -1.096  15.963  21.270  0.00  0.00     0.019 A 
HETATM   10  C   UNL     1      -1.028  14.935  22.231  0.00  0.00     0.035 A 
ENDROOT
BRANCH   1  11
HETATM   11  C   UNL     1      -1.936  12.785  23.216  0.00  0.00     0.260 C 
HETATM   12  O   UNL     1      -2.851  12.850  24.038  0.00  0.00    -0.267 OA
HETATM   13  N   UNL     1      -0.937  11.783  23.200  0.00  0.00    -0.318 N 
HETATM   14  C   UNL     1      -0.013  11.603  22.073  0.00  0.00     0.159 C 
BRANCH  13  15
HETATM   15  C   UNL     1      -0.801  10.813  24.277  0.00  0.00     0.037 A 
HETATM   16  C   UNL     1      -0.482   9.464  24.078  0.00  0.00     0.032 A 
HETATM   17  C   UNL     1      -0.357   8.557  25.154  0.00  0.00     0.031 A 
HETATM   18  C   UNL     1      -0.557   8.951  26.478  0.00  0.00     0.030 A 
HETATM   19  C   UNL     1      -0.859  10.302  26.675  0.00  0.00     0.031 A 
HETATM   20  C   UNL     1      -0.983  11.207  25.610  0.00  0.00     0.032 A 
BRANCH  18  21
HETATM   21  N   UNL     1      -0.410   8.114  27.570  0.00  0.00    -0.377 N 
HETATM   22  C   UNL     1      -0.797   6.693  27.533  0.00  0.00     0.149 C 
HETATM   23  C   UNL     1       0.033   5.933  28.589  0.00  0.00     0.187 C 
HETATM   24  O   UNL     1      -0.121   6.496  29.906  0.00  0.00    -0.388 OA
HETATM   25  C   UNL     1       0.269   7.881  29.908  0.00  0.00     0.187 C 
HETATM   26  C   UNL     1      -0.575   8.697  28.919  0.00  0.00     0.149 C 
ENDBRANCH  18  21
ENDBRANCH  13  15
ENDBRANCH   1  11
BRANCH   2  27
HETATM   27  O   UNL     1      -4.100  13.095  21.322  0.00  0.00    -0.360 OA
HETATM   28  H   UNL     1      -4.568  13.193  20.461  0.00  0.00     0.217 HD
ENDBRANCH   2  27
BRANCH   8  29
HETATM   29  C   UNL     1       0.843  17.635  21.745  0.00  0.00     0.066 C 
BRANCH  29  30
HETATM   30  C   UNL     1       2.214  16.933  21.656  0.00  0.00    -0.009 C 
HETATM   31  C   UNL     1       2.566  15.928  22.777  0.00  0.00     0.005 C 
HETATM   32  C   UNL     1       2.679  14.446  22.403  0.00  0.00     0.000 C 
HETATM   33  C   UNL     1       3.178  14.195  20.989  0.00  0.00     0.000 C 
HETATM   34  C   UNL     1       2.346  14.989  19.999  0.00  0.00     0.000 C 
HETATM   35  C   UNL     1       2.563  16.472  20.235  0.00  0.00     0.005 C 
ENDBRANCH  29  30
ENDBRANCH   8  29
TORSDOF 6
ENDMDL
MODEL 4
REMARK VINA RESULT:    -8.900      2.086      2.347
REMARK INTER + INTRA:         -12.676
REMARK INTER:                 -11.408
REMARK INTRA:                  -1.268
REMARK UNBOUND:                -0.914
REMARK  6 active torsions:
REMARK  status: ('A' for Active; 'I' for Inactive)
REMARK       I    between atoms: C_2  and  N_3 
REMARK    1  A    between atoms: C_2  and  C_17 
REMARK    2  A    between atoms: N_3  and  C_5 
REMARK    3  A    between atoms: C_8  and  N_9 
REMARK    4  A    between atoms: C_18  and  O_19 
REMARK    5  A    between atoms: C_25  and  C_26 
REMARK    6  A    between atoms: C_26  and  C_27 
ROOT
HETATM    1  C   UNL     1      -2.541  13.602  23.518  0.00  0.00     0.066 A 
HETATM    2  C   UNL     1      -3.922  13.765  23.751  0.00  0.00     0.083 A 
HETATM    3  C   UNL     1      -4.728  14.586  22.952  0.00  0.00     0.069 A 
HETATM    4  C   UNL     1      -4.101  15.243  21.891  0.00  0.00     0.065 A 
HETATM    5  N   UNL     1      -4.565  16.134  20.961  0.00  0.00    -0.277 N 
HETATM    6  H   UNL     1      -5.504  16.508  20.882  0.00  0.00     0.189 HD
HETATM    7  N   UNL     1      -3.622  16.584  20.110  0.00  0.00    -0.178 NA
HETATM    8  C   UNL     1      -2.500  15.974  20.513  0.00  0.00     0.067 A 
HETATM    9  C   UNL     1      -2.742  15.134  21.637  0.00  0.00     0.019 A 
HETATM   10  C   UNL     1      -1.943  14.352  22.495  0.00  0.00     0.035 A 
ENDROOT
BRANCH   1  11
HETATM   11  C   UNL     1      -1.731  12.753  24.448  0.00  0.00     0.260 C 
HETATM   12  O   UNL     1      -1.513  13.303  25.529  0.00  0.00    -0.267 OA
HETATM   13  N   UNL     1      -1.268  11.463  24.094  0.00  0.00    -0.318 N 
HETATM   14  C   UNL     1      -1.746  10.749  22.903  0.00  0.00     0.159 C 
BRANCH  13  15
HETATM   15  C   UNL     1      -0.333  10.723  24.929  0.00  0.00     0.037 A 
HETATM   16  C   UNL     1       1.047  10.668  24.700  0.00  0.00     0.032 A 
HETATM   17  C   UNL     1       1.919   9.940  25.540  0.00  0.00     0.031 A 
HETATM   18  C   UNL     1       1.452   9.221  26.641  0.00  0.00     0.030 A 
HETATM   19  C   UNL     1       0.075   9.290  26.878  0.00  0.00     0.031 A 
HETATM   20  C   UNL     1      -0.794  10.014  26.047  0.00  0.00     0.032 A 
BRANCH  18  21
HETATM   21  N   UNL     1       2.265   8.524  27.516  0.00  0.00    -0.377 N 
HETATM   22  C   UNL     1       3.312   7.596  27.053  0.00  0.00     0.149 C 
HETATM   23  C   UNL     1       4.393   7.493  28.150  0.00  0.00     0.187 C 
HETATM   24  O   UNL     1       3.841   7.087  29.417  0.00  0.00    -0.388 OA
HETATM   25  C   UNL     1       2.827   8.015  29.842  0.00  0.00     0.187 C 
HETATM   26  C   UNL     1       1.691   8.105  28.813  0.00  0.00     0.149 C 
ENDBRANCH  18  21
ENDBRANCH  13  15
ENDBRANCH   1  11
BRANCH   2  27
HETATM   27  O   UNL     1      -4.571  13.164  24.804  0.00  0.00    -0.360 OA
HETATM   28  H   UNL     1      -4.324  13.659  25.619  0.00  0.00     0.217 HD
ENDBRANCH   2  27
BRANCH   8  29
HETATM   29  C   UNL     1      -1.165  16.344  19.955  0.00  0.00     0.066 C 
BRANCH  29  30
HETATM   30  C   UNL     1      -0.288  17.399  20.661  0.00  0.00    -0.009 C 
HETATM   31  C   UNL     1      -0.117  17.265  22.191  0.00  0.00     0.005 C 
HETATM   32  C   UNL     1       1.274  16.911  22.730  0.00  0.00     0.000 C 
HETATM   33  C   UNL     1       2.424  17.449  21.893  0.00  0.00     0.000 C 
HETATM   34  C   UNL     1       2.237  17.048  20.441  0.00  0.00     0.000 C 
HETATM   35  C   UNL     1       0.997  17.726  19.888  0.00  0.00     0.005 C 
ENDBRANCH  29  30
ENDBRANCH   8  29
TORSDOF 6
ENDMDL
MODEL 5
REMARK VINA RESULT:    -8.815      1.788      2.399
REMARK INTER + INTRA:         -12.562
REMARK INTER:                 -11.134
REMARK INTRA:                  -1.429
REMARK UNBOUND:                -0.914
REMARK  6 active torsions:
REMARK  status: ('A' for Active; 'I' for Inactive)
REMARK       I    between atoms: C_2  and  N_3 
REMARK    1  A    between atoms: C_2  and  C_17 
REMARK    2  A    between atoms: N_3  and  C_5 
REMARK    3  A    between atoms: C_8  and  N_9 
REMARK    4  A    between atoms: C_18  and  O_19 
REMARK    5  A    between atoms: C_25  and  C_26 
REMARK    6  A    between atoms: C_26  and  C_27 
ROOT
HETATM    1  C   UNL     1      -1.119  12.673  22.349  0.00  0.00     0.066 A 
HETATM    2  C   UNL     1      -2.239  12.388  21.542  0.00  0.00     0.083 A 
HETATM    3  C   UNL     1      -2.826  13.345  20.704  0.00  0.00     0.069 A 
HETATM    4  C   UNL     1      -2.244  14.614  20.694  0.00  0.00     0.065 A 
HETATM    5  N   UNL     1      -2.578  15.772  20.045  0.00  0.00    -0.277 N 
HETATM    6  H   UNL     1      -3.367  15.925  19.425  0.00  0.00     0.189 HD
HETATM    7  N   UNL     1      -1.778  16.817  20.333  0.00  0.00    -0.178 NA
HETATM    8  C   UNL     1      -0.900  16.323  21.216  0.00  0.00     0.067 A 
HETATM    9  C   UNL     1      -1.158  14.949  21.490  0.00  0.00     0.019 A 
HETATM   10  C   UNL     1      -0.627  13.985  22.370  0.00  0.00     0.035 A 
ENDROOT
BRANCH   1  11
HETATM   11  C   UNL     1      -0.580  11.615  23.262  0.00  0.00     0.260 C 
HETATM   12  O   UNL     1       0.004  10.715  22.657  0.00  0.00    -0.267 OA
HETATM   13  N   UNL     1      -0.748  11.663  24.667  0.00  0.00    -0.318 N 
HETATM   14  C   UNL     1      -1.233  12.860  25.367  0.00  0.00     0.159 C 
BRANCH  13  15
HETATM   15  C   UNL     1      -0.383  10.546  25.526  0.00  0.00     0.037 A 
HETATM   16  C   UNL     1       0.908  10.007  25.603  0.00  0.00     0.032 A 
HETATM   17  C   UNL     1       1.219   8.924  26.455  0.00  0.00     0.031 A 
HETATM   18  C   UNL     1       0.253   8.319  27.260  0.00  0.00     0.030 A 
HETATM   19  C   UNL     1      -1.031   8.869  27.194  0.00  0.00     0.031 A 
HETATM   20  C   UNL     1      -1.344   9.946  26.351  0.00  0.00     0.032 A 
BRANCH  18  21
HETATM   21  N   UNL     1       0.512   7.282  28.138  0.00  0.00    -0.377 N 
HETATM   22  C   UNL     1       1.611   6.324  27.928  0.00  0.00     0.149 C 
HETATM   23  C   UNL     1       2.023   5.744  29.298  0.00  0.00     0.187 C 
HETATM   24  O   UNL     1       0.911   5.139  29.986  0.00  0.00    -0.388 OA
HETATM   25  C   UNL     1      -0.142   6.101  30.178  0.00  0.00     0.187 C 
HETATM   26  C   UNL     1      -0.634   6.661  28.837  0.00  0.00     0.149 C 
ENDBRANCH  18  21
ENDBRANCH  13  15
ENDBRANCH   1  11
BRANCH   2  27
HETATM   27  O   UNL     1      -2.863  11.162  21.547  0.00  0.00    -0.360 OA
HETATM   28  H   UNL     1      -3.491  11.158  22.306  0.00  0.00     0.217 HD
ENDBRANCH   2  27
BRANCH   8  29
HETATM   29  C   UNL     1       0.055  17.207  21.947  0.00  0.00     0.066 C 
BRANCH  29  30
HETATM   30  C   UNL     1       1.578  17.020  21.781  0.00  0.00    -0.009 C 
HETATM   31  C   UNL     1       2.296  16.131  22.822  0.00  0.00     0.005 C 
HETATM   32  C   UNL     1       2.887  14.800  22.344  0.00  0.00     0.000 C 
HETATM   33  C   UNL     1       3.381  14.816  20.905  0.00  0.00     0.000 C 
HETATM   34  C   UNL     1       2.287  15.336  19.990  0.00  0.00     0.000 C 
HETATM   35  C   UNL     1       2.000  16.789  20.325  0.00  0.00     0.005 C 
ENDBRANCH  29  30
ENDBRANCH   8  29
TORSDOF 6
ENDMDL
MODEL 6
REMARK VINA RESULT:    -8.581      2.648      3.436
REMARK INTER + INTRA:         -12.254
REMARK INTER:                 -11.230
REMARK INTRA:                  -1.024
REMARK UNBOUND:                -0.914
REMARK  6 active torsions:
REMARK  status: ('A' for Active; 'I' for Inactive)
REMARK       I    between atoms: C_2  and  N_3 
REMARK    1  A    between atoms: C_2  and  C_17 
REMARK    2  A    between atoms: N_3  and  C_5 
REMARK    3  A    between atoms: C_8  and  N_9 
REMARK    4  A    between atoms: C_18  and  O_19 
REMARK    5  A    between atoms: C_25  and  C_26 
REMARK    6  A    between atoms: C_26  and  C_27 
ROOT
HETATM    1  C   UNL     1      -2.168  13.480  23.984  0.00  0.00     0.066 A 
HETATM    2  C   UNL     1      -3.518  13.684  23.631  0.00  0.00     0.083 A 
HETATM    3  C   UNL     1      -3.900  14.519  22.573  0.00  0.00     0.069 A 
HETATM    4  C   UNL     1      -2.874  15.148  21.865  0.00  0.00     0.065 A 
HETATM    5  N   UNL     1      -2.889  16.043  20.829  0.00  0.00    -0.277 N 
HETATM    6  H   UNL     1      -3.701  16.443  20.372  0.00  0.00     0.189 HD
HETATM    7  N   UNL     1      -1.667  16.458  20.441  0.00  0.00    -0.178 NA
HETATM    8  C   UNL     1      -0.828  15.820  21.268  0.00  0.00     0.067 A 
HETATM    9  C   UNL     1      -1.534  14.998  22.191  0.00  0.00     0.019 A 
HETATM   10  C   UNL     1      -1.182  14.202  23.299  0.00  0.00     0.035 A 
ENDROOT
BRANCH   1  11
HETATM   11  C   UNL     1      -1.837  12.617  25.163  0.00  0.00     0.260 C 
HETATM   12  O   UNL     1      -1.867  13.234  26.229  0.00  0.00    -0.267 OA
HETATM   13  N   UNL     1      -1.516  11.244  25.035  0.00  0.00    -0.318 N 
HETATM   14  C   UNL     1      -1.725  10.494  23.790  0.00  0.00     0.159 C 
BRANCH  13  15
HETATM   15  C   UNL     1      -1.020  10.461  26.158  0.00  0.00     0.037 A 
HETATM   16  C   UNL     1       0.233   9.837  26.184  0.00  0.00     0.032 A 
HETATM   17  C   UNL     1       0.676   9.089  27.298  0.00  0.00     0.031 A 
HETATM   18  C   UNL     1      -0.118   8.918  28.433  0.00  0.00     0.030 A 
HETATM   19  C   UNL     1      -1.362   9.556  28.412  0.00  0.00     0.031 A 
HETATM   20  C   UNL     1      -1.805  10.301  27.309  0.00  0.00     0.032 A 
BRANCH  18  21
HETATM   21  N   UNL     1       0.281   8.229  29.564  0.00  0.00    -0.377 N 
HETATM   22  C   UNL     1      -0.501   7.114  30.127  0.00  0.00     0.149 C 
HETATM   23  C   UNL     1       0.454   6.200  30.922  0.00  0.00     0.187 C 
HETATM   24  O   UNL     1       1.170   6.920  31.943  0.00  0.00    -0.388 OA
HETATM   25  C   UNL     1       1.925   7.997  31.360  0.00  0.00     0.187 C 
HETATM   26  C   UNL     1       1.010   8.976  30.612  0.00  0.00     0.149 C 
ENDBRANCH  18  21
ENDBRANCH  13  15
ENDBRANCH   1  11
BRANCH   2  27
HETATM   27  O   UNL     1      -4.560  13.112  24.323  0.00  0.00    -0.360 OA
HETATM   28  H   UNL     1      -4.266  13.006  25.257  0.00  0.00     0.217 HD
ENDBRANCH   2  27
BRANCH   8  29
HETATM   29  C   UNL     1       0.629  16.147  21.308  0.00  0.00     0.066 C 
BRANCH  29  30
HETATM   30  C   UNL     1       1.678  15.100  20.880  0.00  0.00    -0.009 C 
HETATM   31  C   UNL     1       2.871  15.602  20.036  0.00  0.00     0.005 C 
HETATM   32  C   UNL     1       4.266  15.565  20.672  0.00  0.00     0.000 C 
HETATM   33  C   UNL     1       4.473  14.428  21.660  0.00  0.00     0.000 C 
HETATM   34  C   UNL     1       3.357  14.428  22.689  0.00  0.00     0.000 C 
HETATM   35  C   UNL     1       2.039  14.119  22.002  0.00  0.00     0.005 C 
ENDBRANCH  29  30
ENDBRANCH   8  29
TORSDOF 6
ENDMDL
MODEL 7
REMARK VINA RESULT:    -8.250      3.410      5.861
REMARK INTER + INTRA:         -11.817
REMARK INTER:                 -10.903
REMARK INTRA:                  -0.914
REMARK UNBOUND:                -0.914
REMARK  6 active torsions:
REMARK  status: ('A' for Active; 'I' for Inactive)
REMARK       I    between atoms: C_2  and  N_3 
REMARK    1  A    between atoms: C_2  and  C_17 
REMARK    2  A    between atoms: N_3  and  C_5 
REMARK    3  A    between atoms: C_8  and  N_9 
REMARK    4  A    between atoms: C_18  and  O_19 
REMARK    5  A    between atoms: C_25  and  C_26 
REMARK    6  A    between atoms: C_26  and  C_27 
ROOT
HETATM    1  C   UNL     1      -1.126   9.707  25.576  0.00  0.00     0.066 A 
HETATM    2  C   UNL     1      -1.424   9.863  26.945  0.00  0.00     0.083 A 
HETATM    3  C   UNL     1      -2.398  10.760  27.405  0.00  0.00     0.069 A 
HETATM    4  C   UNL     1      -3.078  11.502  26.438  0.00  0.00     0.065 A 
HETATM    5  N   UNL     1      -4.034  12.477  26.533  0.00  0.00    -0.277 N 
HETATM    6  H   UNL     1      -4.433  12.867  27.380  0.00  0.00     0.189 HD
HETATM    7  N   UNL     1      -4.418  12.991  25.349  0.00  0.00    -0.178 NA
HETATM    8  C   UNL     1      -3.671  12.335  24.450  0.00  0.00     0.067 A 
HETATM    9  C   UNL     1      -2.802  11.401  25.082  0.00  0.00     0.019 A 
HETATM   10  C   UNL     1      -1.774  10.538  24.652  0.00  0.00     0.035 A 
ENDROOT
BRANCH   1  11
HETATM   11  C   UNL     1      -0.034   8.770  25.162  0.00  0.00     0.260 C 
HETATM   12  O   UNL     1      -0.435   7.617  24.989  0.00  0.00    -0.267 OA
HETATM   13  N   UNL     1       1.309   9.187  25.005  0.00  0.00    -0.318 N 
HETATM   14  C   UNL     1       1.702  10.602  24.984  0.00  0.00     0.159 C 
BRANCH  13  15
HETATM   15  C   UNL     1       2.390   8.238  24.781  0.00  0.00     0.037 A 
HETATM   16  C   UNL     1       3.268   7.801  25.781  0.00  0.00     0.032 A 
HETATM   17  C   UNL     1       4.302   6.875  25.520  0.00  0.00     0.031 A 
HETATM   18  C   UNL     1       4.516   6.351  24.245  0.00  0.00     0.030 A 
HETATM   19  C   UNL     1       3.629   6.775  23.251  0.00  0.00     0.031 A 
HETATM   20  C   UNL     1       2.600   7.694  23.506  0.00  0.00     0.032 A 
BRANCH  18  21
HETATM   21  N   UNL     1       5.488   5.413  23.943  0.00  0.00    -0.377 N 
HETATM   22  C   UNL     1       6.375   5.544  22.774  0.00  0.00     0.149 C 
HETATM   23  C   UNL     1       7.675   4.762  23.056  0.00  0.00     0.187 C 
HETATM   24  O   UNL     1       7.417   3.382  23.380  0.00  0.00    -0.388 OA
HETATM   25  C   UNL     1       6.553   3.290  24.527  0.00  0.00     0.187 C 
HETATM   26  C   UNL     1       5.215   3.998  24.273  0.00  0.00     0.149 C 
ENDBRANCH  18  21
ENDBRANCH  13  15
ENDBRANCH   1  11
BRANCH   2  27
HETATM   27  O   UNL     1      -0.755   9.178  27.932  0.00  0.00    -0.360 OA
HETATM   28  H   UNL     1       0.208   9.263  27.744  0.00  0.00     0.217 HD
ENDBRANCH   2  27
BRANCH   8  29
HETATM   29  C   UNL     1      -3.643  12.740  23.013  0.00  0.00     0.066 C 
BRANCH  29  30
HETATM   30  C   UNL     1      -3.812  14.220  22.613  0.00  0.00    -0.009 C 
HETATM   31  C   UNL     1      -2.523  15.024  22.325  0.00  0.00     0.005 C 
HETATM   32  C   UNL     1      -2.278  15.493  20.886  0.00  0.00     0.000 C 
HETATM   33  C   UNL     1      -3.545  15.803  20.104  0.00  0.00     0.000 C 
HETATM   34  C   UNL     1      -4.502  14.628  20.184  0.00  0.00     0.000 C 
HETATM   35  C   UNL     1      -4.959  14.447  21.620  0.00  0.00     0.005 C 
ENDBRANCH  29  30
ENDBRANCH   8  29
TORSDOF 6
ENDMDL
MODEL 8
REMARK VINA RESULT:    -8.187      3.000      4.488
REMARK INTER + INTRA:         -11.734
REMARK INTER:                 -10.471
REMARK INTRA:                  -1.262
REMARK UNBOUND:                -0.914
REMARK  6 active torsions:
REMARK  status: ('A' for Active; 'I' for Inactive)
REMARK       I    between atoms: C_2  and  N_3 
REMARK    1  A    between atoms: C_2  and  C_17 
REMARK    2  A    between atoms: N_3  and  C_5 
REMARK    3  A    between atoms: C_8  and  N_9 
REMARK    4  A    between atoms: C_18  and  O_19 
REMARK    5  A    between atoms: C_25  and  C_26 
REMARK    6  A    between atoms: C_26  and  C_27 
ROOT
HETATM    1  C   UNL     1      -1.616  11.240  24.425  0.00  0.00     0.066 A 
HETATM    2  C   UNL     1      -2.526  10.996  23.377  0.00  0.00     0.083 A 
HETATM    3  C   UNL     1      -2.587  11.800  22.231  0.00  0.00     0.069 A 
HETATM    4  C   UNL     1      -1.692  12.869  22.163  0.00  0.00     0.065 A 
HETATM    5  N   UNL     1      -1.512  13.858  21.234  0.00  0.00    -0.277 N 
HETATM    6  H   UNL     1      -2.041  14.005  20.382  0.00  0.00     0.189 HD
HETATM    7  N   UNL     1      -0.553  14.749  21.555  0.00  0.00    -0.178 NA
HETATM    8  C   UNL     1      -0.104  14.331  22.746  0.00  0.00     0.067 A 
HETATM    9  C   UNL     1      -0.796  13.164  23.181  0.00  0.00     0.019 A 
HETATM   10  C   UNL     1      -0.799  12.377  24.349  0.00  0.00     0.035 A 
ENDROOT
BRANCH   1  11
HETATM   11  C   UNL     1      -1.645  10.372  25.645  0.00  0.00     0.260 C 
HETATM   12  O   UNL     1      -2.566  10.658  26.412  0.00  0.00    -0.267 OA
HETATM   13  N   UNL     1      -0.696   9.346  25.873  0.00  0.00    -0.318 N 
HETATM   14  C   UNL     1       0.231   8.880  24.835  0.00  0.00     0.159 C 
BRANCH  13  15
HETATM   15  C   UNL     1      -0.623   8.632  27.140  0.00  0.00     0.037 A 
HETATM   16  C   UNL     1      -0.818   7.252  27.272  0.00  0.00     0.032 A 
HETATM   17  C   UNL     1      -0.733   6.599  28.522  0.00  0.00     0.031 A 
HETATM   18  C   UNL     1      -0.462   7.296  29.700  0.00  0.00     0.030 A 
HETATM   19  C   UNL     1      -0.251   8.671  29.564  0.00  0.00     0.031 A 
HETATM   20  C   UNL     1      -0.333   9.324  28.324  0.00  0.00     0.032 A 
BRANCH  18  21
HETATM   21  N   UNL     1      -0.331   6.701  30.943  0.00  0.00    -0.377 N 
HETATM   22  C   UNL     1       0.040   7.463  32.148  0.00  0.00     0.149 C 
HETATM   23  C   UNL     1      -0.499   6.714  33.384  0.00  0.00     0.187 C 
HETATM   24  O   UNL     1      -0.025   5.355  33.444  0.00  0.00    -0.388 OA
HETATM   25  C   UNL     1      -0.407   4.639  32.256  0.00  0.00     0.187 C 
HETATM   26  C   UNL     1       0.162   5.308  30.997  0.00  0.00     0.149 C 
ENDBRANCH  18  21
ENDBRANCH  13  15
ENDBRANCH   1  11
BRANCH   2  27
HETATM   27  O   UNL     1      -3.447   9.975  23.418  0.00  0.00    -0.360 OA
HETATM   28  H   UNL     1      -4.086  10.130  22.684  0.00  0.00     0.217 HD
ENDBRANCH   2  27
BRANCH   8  29
HETATM   29  C   UNL     1       0.841  15.154  23.558  0.00  0.00     0.066 C 
BRANCH  29  30
HETATM   30  C   UNL     1       2.266  15.443  23.044  0.00  0.00    -0.009 C 
HETATM   31  C   UNL     1       3.042  14.264  22.414  0.00  0.00     0.005 C 
HETATM   32  C   UNL     1       3.350  14.328  20.913  0.00  0.00     0.000 C 
HETATM   33  C   UNL     1       3.563  15.735  20.378  0.00  0.00     0.000 C 
HETATM   34  C   UNL     1       2.396  16.621  20.776  0.00  0.00     0.000 C 
HETATM   35  C   UNL     1       2.373  16.773  22.286  0.00  0.00     0.005 C 
ENDBRANCH  29  30
ENDBRANCH   8  29
TORSDOF 6
ENDMDL
