MODEL 1
REMARK VINA RESULT:    -8.040      0.000      0.000
REMARK INTER + INTRA:         -11.448
REMARK INTER:                  -9.803
REMARK INTRA:                  -1.645
REMARK UNBOUND:                -1.528
REMARK  5 active torsions:
REMARK  status: ('A' for Active; 'I' for Inactive)
REMARK    1  A    between atoms: C_2  and  C_4 
REMARK    2  A    between atoms: C_6  and  C_12 
REMARK    3  A    between atoms: C_7  and  O_8 
REMARK    4  A    between atoms: C_10  and  O_11 
REMARK    5  A    between atoms: N_17  and  C_18 
ROOT
HETATM    1  C   UNL     1       0.162  13.053  22.955  0.00  0.00     0.171 A 
HETATM    2  N   UNL     1       0.003  13.602  21.774  0.00  0.00    -0.151 NA
HETATM    3  N   UNL     1      -1.246  13.204  21.386  0.00  0.00    -0.226 N 
HETATM    4  C   UNL     1      -1.820  12.366  22.339  0.00  0.00     0.349 A 
HETATM    5  O   UNL     1      -2.890  11.791  22.214  0.00  0.00    -0.245 OA
HETATM    6  N   UNL     1      -0.919  12.324  23.379  0.00  0.00    -0.244 N 
HETATM    7  H   UNL     1      -1.653  13.433  20.490  0.00  0.00     0.194 HD
ENDROOT
BRANCH   1   8
HETATM    8  C   UNL     1       1.405  13.241  23.731  0.00  0.00     0.046 A 
HETATM    9  C   UNL     1       1.401  13.968  24.923  0.00  0.00     0.028 A 
HETATM   10  C   UNL     1       2.540  14.064  25.741  0.00  0.00    -0.021 A 
HETATM   11  C   UNL     1       3.709  13.427  25.306  0.00  0.00     0.075 A 
HETATM   12  C   UNL     1       3.767  12.791  24.068  0.00  0.00     0.074 A 
HETATM   13  C   UNL     1       2.621  12.715  23.276  0.00  0.00     0.082 A 
BRANCH  10  14
HETATM   14  C   UNL     1       2.459  14.832  27.047  0.00  0.00     0.013 C 
HETATM   15  C   UNL     1       2.992  16.262  26.878  0.00  0.00     0.015 C 
HETATM   16  C   UNL     1       1.022  14.857  27.583  0.00  0.00     0.015 C 
ENDBRANCH  10  14
BRANCH  11  17
HETATM   17  O   UNL     1       4.810  13.439  26.115  0.00  0.00    -0.360 OA
HETATM   18  H   UNL     1       4.973  12.533  26.426  0.00  0.00     0.217 HD
ENDBRANCH  11  17
BRANCH  13  19
HETATM   19  O   UNL     1       2.768  12.110  22.054  0.00  0.00    -0.360 OA
HETATM   20  H   UNL     1       3.130  11.209  22.204  0.00  0.00     0.217 HD
ENDBRANCH  13  19
ENDBRANCH   1   8
BRANCH   6  21
HETATM   21  C   UNL     1      -1.054  11.409  24.436  0.00  0.00     0.046 A 
HETATM   22  C   UNL     1      -1.695  11.775  25.628  0.00  0.00     0.044 A 
HETATM   23  C   UNL     1      -1.638  10.896  26.734  0.00  0.00    -0.006 A 
HETATM   24  C   UNL     1      -2.052  10.995  28.092  0.00  0.00     0.031 A 
HETATM   25  C   UNL     1      -1.022   9.649  26.585  0.00  0.00     0.044 A 
HETATM   26  C   UNL     1      -1.684   9.832  28.732  0.00  0.00     0.091 A 
HETATM   27  N   UNL     1      -1.126   9.000  27.800  0.00  0.00    -0.360 N 
HETATM   28  C   UNL     1      -0.679   7.649  28.067  0.00  0.00     0.155 C 
HETATM   29  C   UNL     1      -0.432   9.249  25.379  0.00  0.00     0.033 A 
HETATM   30  C   UNL     1      -0.419  10.168  24.326  0.00  0.00     0.032 A 
ENDBRANCH   6  21
TORSDOF 5
ENDMDL
MODEL 2
REMARK VINA RESULT:    -7.691      6.193      7.975
REMARK INTER + INTRA:         -11.017
REMARK INTER:                  -9.478
REMARK INTRA:                  -1.539
REMARK UNBOUND:                -1.528
REMARK  5 active torsions:
REMARK  status: ('A' for Active; 'I' for Inactive)
REMARK    1  A    between atoms: C_2  and  C_4 
REMARK    2  A    between atoms: C_6  and  C_12 
REMARK    3  A    between atoms: C_7  and  O_8 
REMARK    4  A    between atoms: C_10  and  O_11 
REMARK    5  A    between atoms: N_17  and  C_18 
ROOT
HETATM    1  C   UNL     1       8.101  14.524  21.597  0.00  0.00     0.171 A 
HETATM    2  N   UNL     1       8.571  15.530  20.899  0.00  0.00    -0.151 NA
HETATM    3  N   UNL     1       8.645  15.047  19.623  0.00  0.00    -0.226 N 
HETATM    4  C   UNL     1       8.251  13.712  19.572  0.00  0.00     0.349 A 
HETATM    5  O   UNL     1       8.304  13.002  18.580  0.00  0.00    -0.245 OA
HETATM    6  N   UNL     1       7.845  13.402  20.851  0.00  0.00    -0.244 N 
HETATM    7  H   UNL     1       9.012  15.576  18.844  0.00  0.00     0.194 HD
ENDROOT
BRANCH   1   8
HETATM    8  C   UNL     1       7.870  14.635  23.052  0.00  0.00     0.046 A 
HETATM    9  C   UNL     1       6.606  14.955  23.552  0.00  0.00     0.028 A 
HETATM   10  C   UNL     1       6.329  14.953  24.930  0.00  0.00    -0.021 A 
HETATM   11  C   UNL     1       7.380  14.649  25.805  0.00  0.00     0.075 A 
HETATM   12  C   UNL     1       8.673  14.436  25.334  0.00  0.00     0.074 A 
HETATM   13  C   UNL     1       8.919  14.447  23.960  0.00  0.00     0.082 A 
BRANCH  10  14
HETATM   14  C   UNL     1       4.924  15.266  25.410  0.00  0.00     0.013 C 
HETATM   15  C   UNL     1       4.162  16.104  24.373  0.00  0.00     0.015 C 
HETATM   16  C   UNL     1       4.152  13.979  25.728  0.00  0.00     0.015 C 
ENDBRANCH  10  14
BRANCH  11  17
HETATM   17  O   UNL     1       7.123  14.565  27.145  0.00  0.00    -0.360 OA
HETATM   18  H   UNL     1       7.928  14.259  27.594  0.00  0.00     0.217 HD
ENDBRANCH  11  17
BRANCH  13  19
HETATM   19  O   UNL     1      10.223  14.272  23.577  0.00  0.00    -0.360 OA
HETATM   20  H   UNL     1      10.329  14.656  22.679  0.00  0.00     0.217 HD
ENDBRANCH  13  19
ENDBRANCH   1   8
BRANCH   6  21
HETATM   21  C   UNL     1       7.577  12.080  21.239  0.00  0.00     0.046 A 
HETATM   22  C   UNL     1       6.262  11.597  21.295  0.00  0.00     0.044 A 
HETATM   23  C   UNL     1       6.021  10.331  21.875  0.00  0.00    -0.006 A 
HETATM   24  C   UNL     1       4.840   9.607  22.203  0.00  0.00     0.031 A 
HETATM   25  C   UNL     1       7.105   9.555  22.299  0.00  0.00     0.044 A 
HETATM   26  C   UNL     1       5.219   8.431  22.810  0.00  0.00     0.091 A 
HETATM   27  N   UNL     1       6.588   8.378  22.801  0.00  0.00    -0.360 N 
HETATM   28  C   UNL     1       7.369   7.259  23.285  0.00  0.00     0.155 C 
HETATM   29  C   UNL     1       8.428  10.004  22.192  0.00  0.00     0.033 A 
HETATM   30  C   UNL     1       8.639  11.295  21.699  0.00  0.00     0.032 A 
ENDBRANCH   6  21
TORSDOF 5
ENDMDL
MODEL 3
REMARK VINA RESULT:    -7.625      2.508      5.946
REMARK INTER + INTRA:         -10.935
REMARK INTER:                  -9.412
REMARK INTRA:                  -1.523
REMARK UNBOUND:                -1.528
REMARK  5 active torsions:
REMARK  status: ('A' for Active; 'I' for Inactive)
REMARK    1  A    between atoms: C_2  and  C_4 
REMARK    2  A    between atoms: C_6  and  C_12 
REMARK    3  A    between atoms: C_7  and  O_8 
REMARK    4  A    between atoms: C_10  and  O_11 
REMARK    5  A    between atoms: N_17  and  C_18 
ROOT
HETATM    1  C   UNL     1      -1.515  11.231  24.441  0.00  0.00     0.171 A 
HETATM    2  N   UNL     1      -2.602  11.236  23.707  0.00  0.00    -0.151 NA
HETATM    3  N   UNL     1      -2.265  11.982  22.613  0.00  0.00    -0.226 N 
HETATM    4  C   UNL     1      -0.963  12.466  22.722  0.00  0.00     0.349 A 
HETATM    5  O   UNL     1      -0.431  13.233  21.936  0.00  0.00    -0.245 OA
HETATM    6  N   UNL     1      -0.468  11.922  23.887  0.00  0.00    -0.244 N 
HETATM    7  H   UNL     1      -2.909  12.208  21.869  0.00  0.00     0.194 HD
ENDROOT
BRANCH   1   8
HETATM    8  C   UNL     1      -1.461  10.522  25.736  0.00  0.00     0.046 A 
HETATM    9  C   UNL     1      -0.553   9.482  25.943  0.00  0.00     0.028 A 
HETATM   10  C   UNL     1      -0.398   8.869  27.199  0.00  0.00    -0.021 A 
HETATM   11  C   UNL     1      -1.216   9.313  28.245  0.00  0.00     0.075 A 
HETATM   12  C   UNL     1      -2.205  10.271  28.033  0.00  0.00     0.074 A 
HETATM   13  C   UNL     1      -2.337  10.860  26.775  0.00  0.00     0.082 A 
BRANCH  10  14
HETATM   14  C   UNL     1       0.638   7.774  27.372  0.00  0.00     0.013 C 
HETATM   15  C   UNL     1       0.050   6.399  27.022  0.00  0.00     0.015 C 
HETATM   16  C   UNL     1       1.884   8.055  26.522  0.00  0.00     0.015 C 
ENDBRANCH  10  14
BRANCH  11  17
HETATM   17  O   UNL     1      -1.036   8.788  29.494  0.00  0.00    -0.360 OA
HETATM   18  H   UNL     1      -0.452   8.015  29.422  0.00  0.00     0.217 HD
ENDBRANCH  11  17
BRANCH  13  19
HETATM   19  O   UNL     1      -3.360  11.762  26.633  0.00  0.00    -0.360 OA
HETATM   20  H   UNL     1      -3.616  12.071  27.529  0.00  0.00     0.217 HD
ENDBRANCH  13  19
ENDBRANCH   1   8
BRANCH   6  21
HETATM   21  C   UNL     1       0.748  12.351  24.442  0.00  0.00     0.046 A 
HETATM   22  C   UNL     1       0.858  13.606  25.057  0.00  0.00     0.044 A 
HETATM   23  C   UNL     1       2.138  14.079  25.425  0.00  0.00    -0.006 A 
HETATM   24  C   UNL     1       2.621  15.316  25.936  0.00  0.00     0.031 A 
HETATM   25  C   UNL     1       3.251  13.249  25.249  0.00  0.00     0.044 A 
HETATM   26  C   UNL     1       3.989  15.220  26.055  0.00  0.00     0.091 A 
HETATM   27  N   UNL     1       4.351  13.948  25.703  0.00  0.00    -0.360 N 
HETATM   28  C   UNL     1       5.702  13.431  25.768  0.00  0.00     0.155 C 
HETATM   29  C   UNL     1       3.143  11.968  24.691  0.00  0.00     0.033 A 
HETATM   30  C   UNL     1       1.882  11.556  24.250  0.00  0.00     0.032 A 
ENDBRANCH   6  21
TORSDOF 5
ENDMDL
MODEL 4
REMARK VINA RESULT:    -7.521      2.913      5.231
REMARK INTER + INTRA:         -10.808
REMARK INTER:                  -9.481
REMARK INTRA:                  -1.327
REMARK UNBOUND:                -1.528
REMARK  5 active torsions:
REMARK  status: ('A' for Active; 'I' for Inactive)
REMARK    1  A    between atoms: C_2  and  C_4 
REMARK    2  A    between atoms: C_6  and  C_12 
REMARK    3  A    between atoms: C_7  and  O_8 
REMARK    4  A    between atoms: C_10  and  O_11 
REMARK    5  A    between atoms: N_17  and  C_18 
ROOT
HETATM    1  C   UNL     1      -1.518  10.871  26.180  0.00  0.00     0.171 A 
HETATM    2  N   UNL     1      -2.458  11.276  27.000  0.00  0.00    -0.151 NA
HETATM    3  N   UNL     1      -2.441  10.357  28.010  0.00  0.00    -0.226 N 
HETATM    4  C   UNL     1      -1.500   9.360  27.761  0.00  0.00     0.349 A 
HETATM    5  O   UNL     1      -1.333   8.365  28.448  0.00  0.00    -0.245 OA
HETATM    6  N   UNL     1      -0.868   9.738  26.597  0.00  0.00    -0.244 N 
HETATM    7  H   UNL     1      -3.084  10.369  28.789  0.00  0.00     0.194 HD
ENDROOT
BRANCH   1   8
HETATM    8  C   UNL     1      -1.211  11.604  24.934  0.00  0.00     0.046 A 
HETATM    9  C   UNL     1      -0.028  12.335  24.809  0.00  0.00     0.028 A 
HETATM   10  C   UNL     1       0.345  12.945  23.598  0.00  0.00    -0.021 A 
HETATM   11  C   UNL     1      -0.532  12.826  22.512  0.00  0.00     0.075 A 
HETATM   12  C   UNL     1      -1.767  12.197  22.647  0.00  0.00     0.074 A 
HETATM   13  C   UNL     1      -2.112  11.604  23.862  0.00  0.00     0.082 A 
BRANCH  10  14
HETATM   14  C   UNL     1       1.665  13.687  23.512  0.00  0.00     0.013 C 
HETATM   15  C   UNL     1       1.976  14.412  24.830  0.00  0.00     0.015 C 
HETATM   16  C   UNL     1       2.810  12.735  23.143  0.00  0.00     0.015 C 
ENDBRANCH  10  14
BRANCH  11  17
HETATM   17  O   UNL     1      -0.161  13.343  21.303  0.00  0.00    -0.360 OA
HETATM   18  H   UNL     1      -0.807  14.023  21.048  0.00  0.00     0.217 HD
ENDBRANCH  11  17
BRANCH  13  19
HETATM   19  O   UNL     1      -3.360  11.042  23.929  0.00  0.00    -0.360 OA
HETATM   20  H   UNL     1      -4.011  11.765  24.061  0.00  0.00     0.217 HD
ENDBRANCH  13  19
ENDBRANCH   1   8
BRANCH   6  21
HETATM   21  C   UNL     1       0.002   8.871  25.916  0.00  0.00     0.046 A 
HETATM   22  C   UNL     1       1.260   8.550  26.443  0.00  0.00     0.044 A 
HETATM   23  C   UNL     1       2.178   7.837  25.639  0.00  0.00    -0.006 A 
HETATM   24  C   UNL     1       3.542   7.464  25.797  0.00  0.00     0.031 A 
HETATM   25  C   UNL     1       1.779   7.393  24.373  0.00  0.00     0.044 A 
HETATM   26  C   UNL     1       3.941   6.817  24.648  0.00  0.00     0.091 A 
HETATM   27  N   UNL     1       2.851   6.720  23.824  0.00  0.00    -0.360 N 
HETATM   28  C   UNL     1       2.846   6.037  22.547  0.00  0.00     0.155 C 
HETATM   29  C   UNL     1       0.501   7.657  23.862  0.00  0.00     0.033 A 
HETATM   30  C   UNL     1      -0.360   8.441  24.635  0.00  0.00     0.032 A 
ENDBRANCH   6  21
TORSDOF 5
ENDMDL
MODEL 5
REMARK VINA RESULT:    -7.515      1.275      2.600
REMARK INTER + INTRA:         -10.800
REMARK INTER:                  -9.606
REMARK INTRA:                  -1.194
REMARK UNBOUND:                -1.528
REMARK  5 active torsions:
REMARK  status: ('A' for Active; 'I' for Inactive)
REMARK    1  A    between atoms: C_2  and  C_4 
REMARK    2  A    between atoms: C_6  and  C_12 
REMARK    3  A    between atoms: C_7  and  O_8 
REMARK    4  A    between atoms: C_10  and  O_11 
REMARK    5  A    between atoms: N_17  and  C_18 
ROOT
HETATM    1  C   UNL     1       0.053  12.764  23.323  0.00  0.00     0.171 A 
HETATM    2  N   UNL     1      -0.208  13.341  22.174  0.00  0.00    -0.151 NA
HETATM    3  N   UNL     1      -1.469  12.917  21.864  0.00  0.00    -0.226 N 
HETATM    4  C   UNL     1      -1.948  12.033  22.829  0.00  0.00     0.349 A 
HETATM    5  O   UNL     1      -3.007  11.430  22.763  0.00  0.00    -0.245 OA
HETATM    6  N   UNL     1      -0.973  11.989  23.800  0.00  0.00    -0.244 N 
HETATM    7  H   UNL     1      -1.946  13.158  21.008  0.00  0.00     0.194 HD
ENDROOT
BRANCH   1   8
HETATM    8  C   UNL     1       1.343  12.967  24.014  0.00  0.00     0.046 A 
HETATM    9  C   UNL     1       2.528  12.457  23.479  0.00  0.00     0.028 A 
HETATM   10  C   UNL     1       3.782  12.734  24.050  0.00  0.00    -0.021 A 
HETATM   11  C   UNL     1       3.810  13.519  25.209  0.00  0.00     0.075 A 
HETATM   12  C   UNL     1       2.633  13.944  25.823  0.00  0.00     0.074 A 
HETATM   13  C   UNL     1       1.403  13.652  25.233  0.00  0.00     0.082 A 
BRANCH  10  14
HETATM   14  C   UNL     1       5.037  12.188  23.396  0.00  0.00     0.013 C 
HETATM   15  C   UNL     1       4.753  10.860  22.681  0.00  0.00     0.015 C 
HETATM   16  C   UNL     1       5.634  13.206  22.415  0.00  0.00     0.015 C 
ENDBRANCH  10  14
BRANCH  11  17
HETATM   17  O   UNL     1       5.018  13.867  25.744  0.00  0.00    -0.360 OA
HETATM   18  H   UNL     1       5.408  14.568  25.195  0.00  0.00     0.217 HD
ENDBRANCH  11  17
BRANCH  13  19
HETATM   19  O   UNL     1       0.290  14.067  25.918  0.00  0.00    -0.360 OA
HETATM   20  H   UNL     1       0.071  14.976  25.617  0.00  0.00     0.217 HD
ENDBRANCH  13  19
ENDBRANCH   1   8
BRANCH   6  21
HETATM   21  C   UNL     1      -1.006  11.041  24.835  0.00  0.00     0.046 A 
HETATM   22  C   UNL     1      -1.677  11.307  26.036  0.00  0.00     0.044 A 
HETATM   23  C   UNL     1      -1.521  10.414  27.121  0.00  0.00    -0.006 A 
HETATM   24  C   UNL     1      -1.937  10.435  28.482  0.00  0.00     0.031 A 
HETATM   25  C   UNL     1      -0.776   9.244  26.942  0.00  0.00     0.044 A 
HETATM   26  C   UNL     1      -1.445   9.304  29.094  0.00  0.00     0.091 A 
HETATM   27  N   UNL     1      -0.804   8.559  28.140  0.00  0.00    -0.360 N 
HETATM   28  C   UNL     1      -0.214   7.257  28.375  0.00  0.00     0.155 C 
HETATM   29  C   UNL     1      -0.151   8.938  25.725  0.00  0.00     0.033 A 
HETATM   30  C   UNL     1      -0.242   9.878  24.694  0.00  0.00     0.032 A 
ENDBRANCH   6  21
TORSDOF 5
ENDMDL
MODEL 6
REMARK VINA RESULT:    -7.265      5.896      8.985
REMARK INTER + INTRA:         -10.491
REMARK INTER:                  -9.158
REMARK INTRA:                  -1.333
REMARK UNBOUND:                -1.528
REMARK  5 active torsions:
REMARK  status: ('A' for Active; 'I' for Inactive)
REMARK    1  A    between atoms: C_2  and  C_4 
REMARK    2  A    between atoms: C_6  and  C_12 
REMARK    3  A    between atoms: C_7  and  O_8 
REMARK    4  A    between atoms: C_10  and  O_11 
REMARK    5  A    between atoms: N_17  and  C_18 
ROOT
HETATM    1  C   UNL     1       9.377  13.543  25.250  0.00  0.00     0.171 A 
HETATM    2  N   UNL     1      10.496  13.955  25.797  0.00  0.00    -0.151 NA
HETATM    3  N   UNL     1      10.090  14.702  26.867  0.00  0.00    -0.226 N 
HETATM    4  C   UNL     1       8.700  14.769  26.929  0.00  0.00     0.349 A 
HETATM    5  O   UNL     1       8.065  15.442  27.726  0.00  0.00    -0.245 OA
HETATM    6  N   UNL     1       8.250  13.964  25.907  0.00  0.00    -0.244 N 
HETATM    7  H   UNL     1      10.725  15.197  27.477  0.00  0.00     0.194 HD
ENDROOT
BRANCH   1   8
HETATM    8  C   UNL     1       9.377  12.691  24.043  0.00  0.00     0.046 A 
HETATM    9  C   UNL     1       9.551  13.249  22.775  0.00  0.00     0.028 A 
HETATM   10  C   UNL     1       9.672  12.454  21.622  0.00  0.00    -0.021 A 
HETATM   11  C   UNL     1       9.578  11.065  21.776  0.00  0.00     0.075 A 
HETATM   12  C   UNL     1       9.292  10.494  23.014  0.00  0.00     0.074 A 
HETATM   13  C   UNL     1       9.175  11.309  24.141  0.00  0.00     0.082 A 
BRANCH  10  14
HETATM   14  C   UNL     1       9.906  13.118  20.278  0.00  0.00     0.013 C 
HETATM   15  C   UNL     1       8.630  13.097  19.424  0.00  0.00     0.015 C 
HETATM   16  C   UNL     1      10.407  14.557  20.454  0.00  0.00     0.015 C 
ENDBRANCH  10  14
BRANCH  11  17
HETATM   17  O   UNL     1       9.767  10.264  20.686  0.00  0.00    -0.360 OA
HETATM   18  H   UNL     1       9.349   9.404  20.860  0.00  0.00     0.217 HD
ENDBRANCH  11  17
BRANCH  13  19
HETATM   19  O   UNL     1       8.851  10.677  25.314  0.00  0.00    -0.360 OA
HETATM   20  H   UNL     1       8.203  11.239  25.791  0.00  0.00     0.217 HD
ENDBRANCH  13  19
ENDBRANCH   1   8
BRANCH   6  21
HETATM   21  C   UNL     1       6.900  13.947  25.522  0.00  0.00     0.046 A 
HETATM   22  C   UNL     1       6.374  14.947  24.692  0.00  0.00     0.044 A 
HETATM   23  C   UNL     1       4.976  15.004  24.488  0.00  0.00    -0.006 A 
HETATM   24  C   UNL     1       4.113  15.928  23.834  0.00  0.00     0.031 A 
HETATM   25  C   UNL     1       4.163  14.012  25.047  0.00  0.00     0.044 A 
HETATM   26  C   UNL     1       2.818  15.492  24.005  0.00  0.00     0.091 A 
HETATM   27  N   UNL     1       2.864  14.301  24.679  0.00  0.00    -0.360 N 
HETATM   28  C   UNL     1       1.706  13.487  24.986  0.00  0.00     0.155 C 
HETATM   29  C   UNL     1       4.686  12.973  25.827  0.00  0.00     0.033 A 
HETATM   30  C   UNL     1       6.058  12.986  26.092  0.00  0.00     0.032 A 
ENDBRANCH   6  21
TORSDOF 5
ENDMDL
MODEL 7
REMARK VINA RESULT:    -7.261      6.247      9.115
REMARK INTER + INTRA:         -10.486
REMARK INTER:                  -8.958
REMARK INTRA:                  -1.528
REMARK UNBOUND:                -1.528
REMARK  5 active torsions:
REMARK  status: ('A' for Active; 'I' for Inactive)
REMARK    1  A    between atoms: C_2  and  C_4 
REMARK    2  A    between atoms: C_6  and  C_12 
REMARK    3  A    between atoms: C_7  and  O_8 
REMARK    4  A    between atoms: C_10  and  O_11 
REMARK    5  A    between atoms: N_17  and  C_18 
ROOT
HETATM    1  C   UNL     1       9.184  13.934  21.071  0.00  0.00     0.171 A 
HETATM    2  N   UNL     1      10.089  14.198  20.160  0.00  0.00    -0.151 NA
HETATM    3  N   UNL     1      10.494  15.470  20.450  0.00  0.00    -0.226 N 
HETATM    4  C   UNL     1       9.780  15.987  21.529  0.00  0.00     0.349 A 
HETATM    5  O   UNL     1       9.869  17.131  21.946  0.00  0.00    -0.245 OA
HETATM    6  N   UNL     1       8.974  14.957  21.959  0.00  0.00    -0.244 N 
HETATM    7  H   UNL     1      11.167  15.983  19.898  0.00  0.00     0.194 HD
ENDROOT
BRANCH   1   8
HETATM    8  C   UNL     1       8.484  12.632  21.110  0.00  0.00     0.046 A 
HETATM    9  C   UNL     1       8.308  11.951  22.316  0.00  0.00     0.028 A 
HETATM   10  C   UNL     1       7.547  10.773  22.401  0.00  0.00    -0.021 A 
HETATM   11  C   UNL     1       6.988  10.272  21.218  0.00  0.00     0.075 A 
HETATM   12  C   UNL     1       7.244  10.873  19.987  0.00  0.00     0.074 A 
HETATM   13  C   UNL     1       8.006  12.041  19.934  0.00  0.00     0.082 A 
BRANCH  10  14
HETATM   14  C   UNL     1       7.355  10.103  23.748  0.00  0.00     0.013 C 
HETATM   15  C   UNL     1       8.235   8.851  23.872  0.00  0.00     0.015 C 
HETATM   16  C   UNL     1       7.651  11.079  24.895  0.00  0.00     0.015 C 
ENDBRANCH  10  14
BRANCH  11  17
HETATM   17  O   UNL     1       6.182   9.171  21.281  0.00  0.00    -0.360 OA
HETATM   18  H   UNL     1       5.653   9.130  20.467  0.00  0.00     0.217 HD
ENDBRANCH  11  17
BRANCH  13  19
HETATM   19  O   UNL     1       8.249  12.549  18.684  0.00  0.00    -0.360 OA
HETATM   20  H   UNL     1       9.218  12.519  18.528  0.00  0.00     0.217 HD
ENDBRANCH  13  19
ENDBRANCH   1   8
BRANCH   6  21
HETATM   21  C   UNL     1       7.952  15.165  22.900  0.00  0.00     0.046 A 
HETATM   22  C   UNL     1       8.146  14.856  24.254  0.00  0.00     0.044 A 
HETATM   23  C   UNL     1       7.037  14.893  25.130  0.00  0.00    -0.006 A 
HETATM   24  C   UNL     1       6.846  14.529  26.493  0.00  0.00     0.031 A 
HETATM   25  C   UNL     1       5.796  15.321  24.646  0.00  0.00     0.044 A 
HETATM   26  C   UNL     1       5.521  14.734  26.805  0.00  0.00     0.091 A 
HETATM   27  N   UNL     1       4.912  15.276  25.705  0.00  0.00    -0.360 N 
HETATM   28  C   UNL     1       3.529  15.704  25.659  0.00  0.00     0.155 C 
HETATM   29  C   UNL     1       5.607  15.691  23.307  0.00  0.00     0.033 A 
HETATM   30  C   UNL     1       6.693  15.560  22.438  0.00  0.00     0.032 A 
ENDBRANCH   6  21
TORSDOF 5
ENDMDL
MODEL 8
REMARK VINA RESULT:    -7.190      4.767      8.510
REMARK INTER + INTRA:         -10.398
REMARK INTER:                  -9.231
REMARK INTRA:                  -1.168
REMARK UNBOUND:                -1.528
REMARK  5 active torsions:
REMARK  status: ('A' for Active; 'I' for Inactive)
REMARK    1  A    between atoms: C_2  and  C_4 
REMARK    2  A    between atoms: C_6  and  C_12 
REMARK    3  A    between atoms: C_7  and  O_8 
REMARK    4  A    between atoms: C_10  and  O_11 
REMARK    5  A    between atoms: N_17  and  C_18 
ROOT
HETATM    1  C   UNL     1       5.108  10.845  24.156  0.00  0.00     0.171 A 
HETATM    2  N   UNL     1       4.840   9.597  24.458  0.00  0.00    -0.151 NA
HETATM    3  N   UNL     1       6.055   8.974  24.415  0.00  0.00    -0.226 N 
HETATM    4  C   UNL     1       7.058   9.863  24.036  0.00  0.00     0.349 A 
HETATM    5  O   UNL     1       8.222   9.561  23.828  0.00  0.00    -0.245 OA
HETATM    6  N   UNL     1       6.438  11.088  23.928  0.00  0.00    -0.244 N 
HETATM    7  H   UNL     1       6.182   7.983  24.565  0.00  0.00     0.194 HD
ENDROOT
BRANCH   1   8
HETATM    8  C   UNL     1       4.045  11.869  24.090  0.00  0.00     0.046 A 
HETATM    9  C   UNL     1       4.352  13.226  24.199  0.00  0.00     0.028 A 
HETATM   10  C   UNL     1       3.380  14.226  24.024  0.00  0.00    -0.021 A 
HETATM   11  C   UNL     1       2.065  13.817  23.766  0.00  0.00     0.075 A 
HETATM   12  C   UNL     1       1.715  12.469  23.764  0.00  0.00     0.074 A 
HETATM   13  C   UNL     1       2.702  11.499  23.944  0.00  0.00     0.082 A 
BRANCH  10  14
HETATM   14  C   UNL     1       3.785  15.686  24.109  0.00  0.00     0.013 C 
HETATM   15  C   UNL     1       3.741  16.185  25.561  0.00  0.00     0.015 C 
HETATM   16  C   UNL     1       5.181  15.906  23.511  0.00  0.00     0.015 C 
ENDBRANCH  10  14
BRANCH  11  17
HETATM   17  O   UNL     1       1.114  14.766  23.516  0.00  0.00    -0.360 OA
HETATM   18  H   UNL     1       0.815  15.132  24.365  0.00  0.00     0.217 HD
ENDBRANCH  11  17
BRANCH  13  19
HETATM   19  O   UNL     1       2.273  10.197  23.972  0.00  0.00    -0.360 OA
HETATM   20  H   UNL     1       1.664  10.063  23.213  0.00  0.00     0.217 HD
ENDBRANCH  13  19
ENDBRANCH   1   8
BRANCH   6  21
HETATM   21  C   UNL     1       7.087  12.195  23.358  0.00  0.00     0.046 A 
HETATM   22  C   UNL     1       7.102  12.387  21.970  0.00  0.00     0.044 A 
HETATM   23  C   UNL     1       7.927  13.398  21.426  0.00  0.00    -0.006 A 
HETATM   24  C   UNL     1       8.276  13.777  20.099  0.00  0.00     0.031 A 
HETATM   25  C   UNL     1       8.639  14.238  22.290  0.00  0.00     0.044 A 
HETATM   26  C   UNL     1       9.176  14.816  20.178  0.00  0.00     0.091 A 
HETATM   27  N   UNL     1       9.336  15.131  21.501  0.00  0.00    -0.360 N 
HETATM   28  C   UNL     1      10.150  16.223  21.992  0.00  0.00     0.155 C 
HETATM   29  C   UNL     1       8.582  14.093  23.682  0.00  0.00     0.033 A 
HETATM   30  C   UNL     1       7.833  13.031  24.195  0.00  0.00     0.032 A 
ENDBRANCH   6  21
TORSDOF 5
ENDMDL
MODEL 9
REMARK VINA RESULT:    -7.089      4.877      7.427
REMARK INTER + INTRA:         -10.275
REMARK INTER:                  -8.727
REMARK INTRA:                  -1.547
REMARK UNBOUND:                -1.528
REMARK  5 active torsions:
REMARK  status: ('A' for Active; 'I' for Inactive)
REMARK    1  A    between atoms: C_2  and  C_4 
REMARK    2  A    between atoms: C_6  and  C_12 
REMARK    3  A    between atoms: C_7  and  O_8 
REMARK    4  A    between atoms: C_10  and  O_11 
REMARK    5  A    between atoms: N_17  and  C_18 
ROOT
HETATM    1  C   UNL     1       7.260  10.966  22.303  0.00  0.00     0.171 A 
HETATM    2  N   UNL     1       7.597  10.018  21.461  0.00  0.00    -0.151 NA
HETATM    3  N   UNL     1       6.517   9.909  20.631  0.00  0.00    -0.226 N 
HETATM    4  C   UNL     1       5.501  10.780  21.017  0.00  0.00     0.349 A 
HETATM    5  O   UNL     1       4.391  10.831  20.512  0.00  0.00    -0.245 OA
HETATM    6  N   UNL     1       6.020  11.502  22.068  0.00  0.00    -0.244 N 
HETATM    7  H   UNL     1       6.449   9.227  19.889  0.00  0.00     0.194 HD
ENDROOT
BRANCH   1   8
HETATM    8  C   UNL     1       8.170  11.397  23.385  0.00  0.00     0.046 A 
HETATM    9  C   UNL     1       8.858  12.608  23.299  0.00  0.00     0.028 A 
HETATM   10  C   UNL     1       9.637  13.098  24.362  0.00  0.00    -0.021 A 
HETATM   11  C   UNL     1       9.734  12.310  25.515  0.00  0.00     0.075 A 
HETATM   12  C   UNL     1       9.148  11.047  25.579  0.00  0.00     0.074 A 
HETATM   13  C   UNL     1       8.382  10.587  24.507  0.00  0.00     0.082 A 
BRANCH  10  14
HETATM   14  C   UNL     1      10.324  14.444  24.226  0.00  0.00     0.013 C 
HETATM   15  C   UNL     1      10.495  14.828  22.749  0.00  0.00     0.015 C 
HETATM   16  C   UNL     1       9.549  15.536  24.975  0.00  0.00     0.015 C 
ENDBRANCH  10  14
BRANCH  11  17
HETATM   17  O   UNL     1      10.422  12.794  26.592  0.00  0.00    -0.360 OA
HETATM   18  H   UNL     1      11.317  13.037  26.302  0.00  0.00     0.217 HD
ENDBRANCH  11  17
BRANCH  13  19
HETATM   19  O   UNL     1       7.874   9.319  24.627  0.00  0.00    -0.360 OA
HETATM   20  H   UNL     1       7.436   9.087  23.779  0.00  0.00     0.217 HD
ENDBRANCH  13  19
ENDBRANCH   1   8
BRANCH   6  21
HETATM   21  C   UNL     1       5.213  12.336  22.859  0.00  0.00     0.046 A 
HETATM   22  C   UNL     1       5.285  13.731  22.741  0.00  0.00     0.044 A 
HETATM   23  C   UNL     1       4.606  14.534  23.686  0.00  0.00    -0.006 A 
HETATM   24  C   UNL     1       4.564  15.934  23.939  0.00  0.00     0.031 A 
HETATM   25  C   UNL     1       3.809  13.921  24.659  0.00  0.00     0.044 A 
HETATM   26  C   UNL     1       3.763  16.142  25.040  0.00  0.00     0.091 A 
HETATM   27  N   UNL     1       3.258  14.929  25.424  0.00  0.00    -0.360 N 
HETATM   28  C   UNL     1       2.311  14.738  26.503  0.00  0.00     0.155 C 
HETATM   29  C   UNL     1       3.682  12.528  24.746  0.00  0.00     0.033 A 
HETATM   30  C   UNL     1       4.433  11.750  23.861  0.00  0.00     0.032 A 
ENDBRANCH   6  21
TORSDOF 5
ENDMDL
