MODEL 1
REMARK VINA RESULT:    -7.815      0.000      0.000
REMARK INTER + INTRA:         -11.893
REMARK INTER:                 -10.651
REMARK INTRA:                  -1.242
REMARK UNBOUND:                -1.108
REMARK  7 active torsions:
REMARK  status: ('A' for Active; 'I' for Inactive)
REMARK    1  A    between atoms: C_2  and  C_3 
REMARK    2  A    between atoms: C_3  and  C_4 
REMARK    3  A    between atoms: C_4  and  C_5 
REMARK    4  A    between atoms: C_12  and  C_16 
REMARK    5  A    between atoms: C_13  and  O_15 
REMARK       I    between atoms: C_16  and  N_18 
REMARK    6  A    between atoms: N_18  and  C_20 
REMARK    7  A    between atoms: C_23  and  N_26 
ROOT
HETATM    1  C   UNL     1      12.631  11.695  22.171  0.00  0.00     0.067 A 
HETATM    2  N   UNL     1      13.871  11.972  21.740  0.00  0.00    -0.178 NA
HETATM    3  N   UNL     1      13.769  13.204  21.223  0.00  0.00    -0.277 N 
HETATM    4  H   UNL     1      14.600  13.625  20.823  0.00  0.00     0.189 HD
HETATM    5  C   UNL     1      11.736  12.780  21.932  0.00  0.00     0.019 A 
HETATM    6  C   UNL     1      12.504  13.719  21.255  0.00  0.00     0.065 A 
HETATM    7  C   UNL     1      10.372  13.069  22.157  0.00  0.00     0.035 C 
HETATM    8  C   UNL     1       9.787  14.253  21.632  0.00  0.00     0.066 C 
HETATM    9  C   UNL     1      10.588  15.085  20.841  0.00  0.00     0.083 C 
HETATM   10  C   UNL     1      11.970  14.890  20.712  0.00  0.00     0.069 C 
ENDROOT
BRANCH   8  11
HETATM   11  C   UNL     1       8.310  14.405  21.862  0.00  0.00     0.260 C 
HETATM   12  O   UNL     1       7.648  14.310  20.822  0.00  0.00    -0.267 OA
HETATM   13  N   UNL     1       7.729  14.626  23.141  0.00  0.00    -0.318 N 
HETATM   14  C   UNL     1       8.511  14.948  24.335  0.00  0.00     0.159 C 
BRANCH  13  15
HETATM   15  C   UNL     1       6.281  14.579  23.319  0.00  0.00     0.037 A 
HETATM   16  C   UNL     1       5.535  15.742  23.520  0.00  0.00     0.032 A 
HETATM   17  C   UNL     1       4.142  15.705  23.716  0.00  0.00     0.031 A 
HETATM   18  C   UNL     1       3.417  14.511  23.722  0.00  0.00     0.030 A 
HETATM   19  C   UNL     1       4.142  13.351  23.437  0.00  0.00     0.031 A 
HETATM   20  C   UNL     1       5.546  13.382  23.247  0.00  0.00     0.032 A 
BRANCH  18  21
HETATM   21  N   UNL     1       2.066  14.528  24.000  0.00  0.00    -0.377 N 
HETATM   22  C   UNL     1       0.992  14.393  23.004  0.00  0.00     0.149 C 
HETATM   23  C   UNL     1       0.163  13.121  23.249  0.00  0.00     0.187 C 
HETATM   24  O   UNL     1      -0.308  13.034  24.605  0.00  0.00    -0.388 OA
HETATM   25  C   UNL     1       0.805  13.044  25.514  0.00  0.00     0.187 C 
HETATM   26  C   UNL     1       1.618  14.342  25.393  0.00  0.00     0.149 C 
ENDBRANCH  18  21
ENDBRANCH  13  15
ENDBRANCH   8  11
BRANCH   9  27
HETATM   27  O   UNL     1      10.094  16.095  20.061  0.00  0.00    -0.360 OA
HETATM   28  H   UNL     1       9.819  16.813  20.666  0.00  0.00     0.217 HD
ENDBRANCH   9  27
BRANCH   1  29
HETATM   29  C   UNL     1      12.345  10.338  22.736  0.00  0.00     0.062 C 
BRANCH  29  30
HETATM   30  C   UNL     1      11.982  10.378  24.224  0.00  0.00     0.006 C 
BRANCH  30  31
HETATM   31  C   UNL     1      10.477  10.233  24.450  0.00  0.00    -0.004 C 
HETATM   32  C   UNL     1       9.975  11.249  25.464  0.00  0.00     0.005 C 
ENDBRANCH  30  31
ENDBRANCH  29  30
ENDBRANCH   1  29
TORSDOF 7
ENDMDL
MODEL 2
REMARK VINA RESULT:    -7.638      2.788      4.261
REMARK INTER + INTRA:         -11.649
REMARK INTER:                 -10.476
REMARK INTRA:                  -1.173
REMARK UNBOUND:                -1.108
REMARK  7 active torsions:
REMARK  status: ('A' for Active; 'I' for Inactive)
REMARK    1  A    between atoms: C_2  and  C_3 
REMARK    2  A    between atoms: C_3  and  C_4 
REMARK    3  A    between atoms: C_4  and  C_5 
REMARK    4  A    between atoms: C_12  and  C_16 
REMARK    5  A    between atoms: C_13  and  O_15 
REMARK       I    between atoms: C_16  and  N_18 
REMARK    6  A    between atoms: N_18  and  C_20 
REMARK    7  A    between atoms: C_23  and  N_26 
ROOT
HETATM    1  C   UNL     1      10.542  13.863  22.731  0.00  0.00     0.067 A 
HETATM    2  N   UNL     1      11.699  14.261  23.281  0.00  0.00    -0.178 NA
HETATM    3  N   UNL     1      11.389  14.495  24.563  0.00  0.00    -0.277 N 
HETATM    4  H   UNL     1      12.124  14.819  25.181  0.00  0.00     0.189 HD
HETATM    5  C   UNL     1       9.486  13.832  23.692  0.00  0.00     0.019 A 
HETATM    6  C   UNL     1      10.067  14.313  24.859  0.00  0.00     0.065 A 
HETATM    7  C   UNL     1       8.112  13.509  23.715  0.00  0.00     0.035 C 
HETATM    8  C   UNL     1       7.332  13.746  24.878  0.00  0.00     0.066 C 
HETATM    9  C   UNL     1       7.953  14.362  25.970  0.00  0.00     0.083 C 
HETATM   10  C   UNL     1       9.338  14.573  26.021  0.00  0.00     0.069 C 
ENDROOT
BRANCH   8  11
HETATM   11  C   UNL     1       5.865  13.443  24.749  0.00  0.00     0.260 C 
HETATM   12  O   UNL     1       5.594  12.261  24.990  0.00  0.00    -0.267 OA
HETATM   13  N   UNL     1       4.887  14.414  24.396  0.00  0.00    -0.318 N 
HETATM   14  C   UNL     1       5.221  15.752  23.907  0.00  0.00     0.159 C 
BRANCH  13  15
HETATM   15  C   UNL     1       3.464  14.097  24.469  0.00  0.00     0.037 A 
HETATM   16  C   UNL     1       2.722  14.345  25.625  0.00  0.00     0.032 A 
HETATM   17  C   UNL     1       1.356  14.021  25.712  0.00  0.00     0.031 A 
HETATM   18  C   UNL     1       0.654  13.434  24.657  0.00  0.00     0.030 A 
HETATM   19  C   UNL     1       1.368  13.259  23.469  0.00  0.00     0.031 A 
HETATM   20  C   UNL     1       2.747  13.577  23.378  0.00  0.00     0.032 A 
BRANCH  18  21
HETATM   21  N   UNL     1      -0.663  13.063  24.829  0.00  0.00    -0.377 N 
HETATM   22  C   UNL     1      -1.651  12.916  23.748  0.00  0.00     0.149 C 
HETATM   23  C   UNL     1      -2.141  11.463  23.637  0.00  0.00     0.187 C 
HETATM   24  O   UNL     1      -2.601  10.948  24.898  0.00  0.00    -0.388 OA
HETATM   25  C   UNL     1      -1.543  11.006  25.869  0.00  0.00     0.187 C 
HETATM   26  C   UNL     1      -1.076  12.451  26.105  0.00  0.00     0.149 C 
ENDBRANCH  18  21
ENDBRANCH  13  15
ENDBRANCH   8  11
BRANCH   9  27
HETATM   27  O   UNL     1       7.271  14.888  27.034  0.00  0.00    -0.360 OA
HETATM   28  H   UNL     1       7.000  14.137  27.598  0.00  0.00     0.217 HD
ENDBRANCH   9  27
BRANCH   1  29
HETATM   29  C   UNL     1      10.489  13.597  21.259  0.00  0.00     0.062 C 
BRANCH  29  30
HETATM   30  C   UNL     1       9.790  14.715  20.478  0.00  0.00     0.006 C 
BRANCH  30  31
HETATM   31  C   UNL     1       8.503  14.228  19.812  0.00  0.00    -0.004 C 
HETATM   32  C   UNL     1       8.705  12.870  19.157  0.00  0.00     0.005 C 
ENDBRANCH  30  31
ENDBRANCH  29  30
ENDBRANCH   1  29
TORSDOF 7
ENDMDL
MODEL 3
REMARK VINA RESULT:    -7.543      2.228      3.801
REMARK INTER + INTRA:         -11.517
REMARK INTER:                 -10.326
REMARK INTRA:                  -1.191
REMARK UNBOUND:                -1.108
REMARK  7 active torsions:
REMARK  status: ('A' for Active; 'I' for Inactive)
REMARK    1  A    between atoms: C_2  and  C_3 
REMARK    2  A    between atoms: C_3  and  C_4 
REMARK    3  A    between atoms: C_4  and  C_5 
REMARK    4  A    between atoms: C_12  and  C_16 
REMARK    5  A    between atoms: C_13  and  O_15 
REMARK       I    between atoms: C_16  and  N_18 
REMARK    6  A    between atoms: N_18  and  C_20 
REMARK    7  A    between atoms: C_23  and  N_26 
ROOT
HETATM    1  C   UNL     1      10.745  14.287  21.328  0.00  0.00     0.067 A 
HETATM    2  N   UNL     1      11.946  13.691  21.372  0.00  0.00    -0.178 NA
HETATM    3  N   UNL     1      11.679  12.447  21.791  0.00  0.00    -0.277 N 
HETATM    4  H   UNL     1      12.454  11.804  21.907  0.00  0.00     0.189 HD
HETATM    5  C   UNL     1       9.700  13.395  21.715  0.00  0.00     0.019 A 
HETATM    6  C   UNL     1      10.359  12.224  22.070  0.00  0.00     0.065 A 
HETATM    7  C   UNL     1       8.296  13.439  21.856  0.00  0.00     0.035 C 
HETATM    8  C   UNL     1       7.590  12.344  22.421  0.00  0.00     0.066 C 
HETATM    9  C   UNL     1       8.335  11.253  22.885  0.00  0.00     0.083 C 
HETATM   10  C   UNL     1       9.708  11.128  22.640  0.00  0.00     0.069 C 
ENDROOT
BRANCH   8  11
HETATM   11  C   UNL     1       6.112  12.546  22.600  0.00  0.00     0.260 C 
HETATM   12  O   UNL     1       5.449  12.123  21.646  0.00  0.00    -0.267 OA
HETATM   13  N   UNL     1       5.531  13.153  23.747  0.00  0.00    -0.318 N 
HETATM   14  C   UNL     1       6.312  13.843  24.775  0.00  0.00     0.159 C 
BRANCH  13  15
HETATM   15  C   UNL     1       4.084  13.152  23.939  0.00  0.00     0.037 A 
HETATM   16  C   UNL     1       3.411  12.014  24.387  0.00  0.00     0.032 A 
HETATM   17  C   UNL     1       2.014  11.996  24.551  0.00  0.00     0.031 A 
HETATM   18  C   UNL     1       1.212  13.106  24.280  0.00  0.00     0.030 A 
HETATM   19  C   UNL     1       1.885  14.274  23.912  0.00  0.00     0.031 A 
HETATM   20  C   UNL     1       3.292  14.296  23.737  0.00  0.00     0.032 A 
BRANCH  18  21
HETATM   21  N   UNL     1      -0.160  13.006  24.381  0.00  0.00    -0.377 N 
HETATM   22  C   UNL     1      -1.075  12.725  23.263  0.00  0.00     0.149 C 
HETATM   23  C   UNL     1      -1.813  11.391  23.469  0.00  0.00     0.187 C 
HETATM   24  O   UNL     1      -2.450  11.318  24.756  0.00  0.00    -0.388 OA
HETATM   25  C   UNL     1      -1.474  11.473  25.799  0.00  0.00     0.187 C 
HETATM   26  C   UNL     1      -0.771  12.836  25.712  0.00  0.00     0.149 C 
ENDBRANCH  18  21
ENDBRANCH  13  15
ENDBRANCH   8  11
BRANCH   9  27
HETATM   27  O   UNL     1       7.820  10.268  23.684  0.00  0.00    -0.360 OA
HETATM   28  H   UNL     1       8.284  10.327  24.542  0.00  0.00     0.217 HD
ENDBRANCH   9  27
BRANCH   1  29
HETATM   29  C   UNL     1      10.667  15.742  20.981  0.00  0.00     0.062 C 
BRANCH  29  30
HETATM   30  C   UNL     1      10.078  16.591  22.112  0.00  0.00     0.006 C 
BRANCH  30  31
HETATM   31  C   UNL     1      10.831  16.394  23.428  0.00  0.00    -0.004 C 
HETATM   32  C   UNL     1       9.907  15.861  24.512  0.00  0.00     0.005 C 
ENDBRANCH  30  31
ENDBRANCH  29  30
ENDBRANCH   1  29
TORSDOF 7
ENDMDL
MODEL 4
REMARK VINA RESULT:    -7.505      2.818     10.086
REMARK INTER + INTRA:         -11.466
REMARK INTER:                 -10.479
REMARK INTRA:                  -0.986
REMARK UNBOUND:                -1.108
REMARK  7 active torsions:
REMARK  status: ('A' for Active; 'I' for Inactive)
REMARK    1  A    between atoms: C_2  and  C_3 
REMARK    2  A    between atoms: C_3  and  C_4 
REMARK    3  A    between atoms: C_4  and  C_5 
REMARK    4  A    between atoms: C_12  and  C_16 
REMARK    5  A    between atoms: C_13  and  O_15 
REMARK       I    between atoms: C_16  and  N_18 
REMARK    6  A    between atoms: N_18  and  C_20 
REMARK    7  A    between atoms: C_23  and  N_26 
ROOT
HETATM    1  C   UNL     1      -0.415  12.762  25.942  0.00  0.00     0.067 A 
HETATM    2  N   UNL     1      -1.110  13.060  27.051  0.00  0.00    -0.178 NA
HETATM    3  N   UNL     1      -0.409  14.049  27.621  0.00  0.00    -0.277 N 
HETATM    4  H   UNL     1      -0.750  14.435  28.494  0.00  0.00     0.189 HD
HETATM    5  C   UNL     1       0.740  13.592  25.807  0.00  0.00     0.019 A 
HETATM    6  C   UNL     1       0.741  14.373  26.956  0.00  0.00     0.065 A 
HETATM    7  C   UNL     1       1.804  13.748  24.893  0.00  0.00     0.035 C 
HETATM    8  C   UNL     1       2.884  14.624  25.182  0.00  0.00     0.066 C 
HETATM    9  C   UNL     1       2.887  15.274  26.422  0.00  0.00     0.083 C 
HETATM   10  C   UNL     1       1.786  15.237  27.287  0.00  0.00     0.069 C 
ENDROOT
BRANCH   8  11
HETATM   11  C   UNL     1       3.998  14.638  24.173  0.00  0.00     0.260 C 
HETATM   12  O   UNL     1       3.835  15.485  23.288  0.00  0.00    -0.267 OA
HETATM   13  N   UNL     1       5.126  13.774  24.231  0.00  0.00    -0.318 N 
HETATM   14  C   UNL     1       5.222  12.635  25.145  0.00  0.00     0.159 C 
BRANCH  13  15
HETATM   15  C   UNL     1       6.256  13.964  23.328  0.00  0.00     0.037 A 
HETATM   16  C   UNL     1       6.412  13.183  22.181  0.00  0.00     0.032 A 
HETATM   17  C   UNL     1       7.511  13.344  21.318  0.00  0.00     0.031 A 
HETATM   18  C   UNL     1       8.513  14.289  21.546  0.00  0.00     0.030 A 
HETATM   19  C   UNL     1       8.323  15.131  22.645  0.00  0.00     0.031 A 
HETATM   20  C   UNL     1       7.221  14.968  23.523  0.00  0.00     0.032 A 
BRANCH  18  21
HETATM   21  N   UNL     1       9.609  14.346  20.710  0.00  0.00    -0.377 N 
HETATM   22  C   UNL     1      10.681  15.351  20.784  0.00  0.00     0.149 C 
HETATM   23  C   UNL     1      12.033  14.698  21.116  0.00  0.00     0.187 C 
HETATM   24  O   UNL     1      12.340  13.606  20.233  0.00  0.00    -0.388 OA
HETATM   25  C   UNL     1      11.311  12.605  20.311  0.00  0.00     0.187 C 
HETATM   26  C   UNL     1       9.946  13.169  19.888  0.00  0.00     0.149 C 
ENDBRANCH  18  21
ENDBRANCH  13  15
ENDBRANCH   8  11
BRANCH   9  27
HETATM   27  O   UNL     1       3.978  15.921  26.937  0.00  0.00    -0.360 OA
HETATM   28  H   UNL     1       3.993  16.814  26.539  0.00  0.00     0.217 HD
ENDBRANCH   9  27
BRANCH   1  29
HETATM   29  C   UNL     1      -0.864  11.618  25.087  0.00  0.00     0.062 C 
BRANCH  29  30
HETATM   30  C   UNL     1      -2.356  11.679  24.749  0.00  0.00     0.006 C 
BRANCH  30  31
HETATM   31  C   UNL     1      -2.596  11.861  23.250  0.00  0.00    -0.004 C 
HETATM   32  C   UNL     1      -1.385  12.485  22.574  0.00  0.00     0.005 C 
ENDBRANCH  30  31
ENDBRANCH  29  30
ENDBRANCH   1  29
TORSDOF 7
ENDMDL
MODEL 5
REMARK VINA RESULT:    -7.486      2.249      2.776
REMARK INTER + INTRA:         -11.438
REMARK INTER:                 -10.629
REMARK INTRA:                  -0.809
REMARK UNBOUND:                -1.108
REMARK  7 active torsions:
REMARK  status: ('A' for Active; 'I' for Inactive)
REMARK    1  A    between atoms: C_2  and  C_3 
REMARK    2  A    between atoms: C_3  and  C_4 
REMARK    3  A    between atoms: C_4  and  C_5 
REMARK    4  A    between atoms: C_12  and  C_16 
REMARK    5  A    between atoms: C_13  and  O_15 
REMARK       I    between atoms: C_16  and  N_18 
REMARK    6  A    between atoms: N_18  and  C_20 
REMARK    7  A    between atoms: C_23  and  N_26 
ROOT
HETATM    1  C   UNL     1      12.404  13.510  24.892  0.00  0.00     0.067 A 
HETATM    2  N   UNL     1      13.531  14.020  24.373  0.00  0.00    -0.178 NA
HETATM    3  N   UNL     1      13.105  15.007  23.574  0.00  0.00    -0.277 N 
HETATM    4  H   UNL     1      13.798  15.540  23.060  0.00  0.00     0.189 HD
HETATM    5  C   UNL     1      11.247  14.200  24.420  0.00  0.00     0.019 A 
HETATM    6  C   UNL     1      11.745  15.127  23.512  0.00  0.00     0.065 A 
HETATM    7  C   UNL     1       9.849  14.129  24.603  0.00  0.00     0.035 C 
HETATM    8  C   UNL     1       8.975  14.931  23.821  0.00  0.00     0.066 C 
HETATM    9  C   UNL     1       9.539  15.741  22.830  0.00  0.00     0.083 C 
HETATM   10  C   UNL     1      10.923  15.927  22.715  0.00  0.00     0.069 C 
ENDROOT
BRANCH   8  11
HETATM   11  C   UNL     1       7.507  14.701  24.047  0.00  0.00     0.260 C 
HETATM   12  O   UNL     1       7.107  15.163  25.122  0.00  0.00    -0.267 OA
HETATM   13  N   UNL     1       6.661  14.032  23.121  0.00  0.00    -0.318 N 
HETATM   14  C   UNL     1       7.162  13.302  21.955  0.00  0.00     0.159 C 
BRANCH  13  15
HETATM   15  C   UNL     1       5.215  14.006  23.317  0.00  0.00     0.037 A 
HETATM   16  C   UNL     1       4.489  12.817  23.226  0.00  0.00     0.032 A 
HETATM   17  C   UNL     1       3.092  12.787  23.390  0.00  0.00     0.031 A 
HETATM   18  C   UNL     1       2.342  13.935  23.654  0.00  0.00     0.030 A 
HETATM   19  C   UNL     1       3.069  15.115  23.831  0.00  0.00     0.031 A 
HETATM   20  C   UNL     1       4.476  15.152  23.659  0.00  0.00     0.032 A 
BRANCH  18  21
HETATM   21  N   UNL     1       0.967  13.857  23.725  0.00  0.00    -0.377 N 
HETATM   22  C   UNL     1       0.097  13.258  22.701  0.00  0.00     0.149 C 
HETATM   23  C   UNL     1      -0.654  12.036  23.255  0.00  0.00     0.187 C 
HETATM   24  O   UNL     1      -1.344  12.334  24.481  0.00  0.00    -0.388 OA
HETATM   25  C   UNL     1      -0.411  12.793  25.473  0.00  0.00     0.187 C 
HETATM   26  C   UNL     1       0.301  14.078  25.022  0.00  0.00     0.149 C 
ENDBRANCH  18  21
ENDBRANCH  13  15
ENDBRANCH   8  11
BRANCH   9  27
HETATM   27  O   UNL     1       8.813  16.346  21.840  0.00  0.00    -0.360 OA
HETATM   28  H   UNL     1       8.415  15.632  21.302  0.00  0.00     0.217 HD
ENDBRANCH   9  27
BRANCH   1  29
HETATM   29  C   UNL     1      12.492  12.307  25.780  0.00  0.00     0.062 C 
BRANCH  29  30
HETATM   30  C   UNL     1      11.807  12.516  27.134  0.00  0.00     0.006 C 
BRANCH  30  31
HETATM   31  C   UNL     1      12.390  13.710  27.891  0.00  0.00    -0.004 C 
HETATM   32  C   UNL     1      11.334  14.780  28.121  0.00  0.00     0.005 C 
ENDBRANCH  30  31
ENDBRANCH  29  30
ENDBRANCH   1  29
TORSDOF 7
ENDMDL
MODEL 6
REMARK VINA RESULT:    -7.481      2.039      2.633
REMARK INTER + INTRA:         -11.431
REMARK INTER:                 -10.183
REMARK INTRA:                  -1.248
REMARK UNBOUND:                -1.108
REMARK  7 active torsions:
REMARK  status: ('A' for Active; 'I' for Inactive)
REMARK    1  A    between atoms: C_2  and  C_3 
REMARK    2  A    between atoms: C_3  and  C_4 
REMARK    3  A    between atoms: C_4  and  C_5 
REMARK    4  A    between atoms: C_12  and  C_16 
REMARK    5  A    between atoms: C_13  and  O_15 
REMARK       I    between atoms: C_16  and  N_18 
REMARK    6  A    between atoms: N_18  and  C_20 
REMARK    7  A    between atoms: C_23  and  N_26 
ROOT
HETATM    1  C   UNL     1      12.480  11.751  23.245  0.00  0.00     0.067 A 
HETATM    2  N   UNL     1      13.680  12.299  23.492  0.00  0.00    -0.178 NA
HETATM    3  N   UNL     1      13.395  13.417  24.175  0.00  0.00    -0.277 N 
HETATM    4  H   UNL     1      14.165  14.008  24.467  0.00  0.00     0.189 HD
HETATM    5  C   UNL     1      11.421  12.534  23.796  0.00  0.00     0.019 A 
HETATM    6  C   UNL     1      12.057  13.644  24.337  0.00  0.00     0.065 A 
HETATM    7  C   UNL     1      10.012  12.473  23.863  0.00  0.00     0.035 C 
HETATM    8  C   UNL     1       9.265  13.556  24.400  0.00  0.00     0.066 C 
HETATM    9  C   UNL     1       9.965  14.700  24.800  0.00  0.00     0.083 C 
HETATM   10  C   UNL     1      11.364  14.736  24.864  0.00  0.00     0.069 C 
ENDROOT
BRANCH   8  11
HETATM   11  C   UNL     1       7.771  13.409  24.336  0.00  0.00     0.260 C 
HETATM   12  O   UNL     1       7.305  12.800  25.306  0.00  0.00    -0.267 OA
HETATM   13  N   UNL     1       6.972  13.922  23.277  0.00  0.00    -0.318 N 
HETATM   14  C   UNL     1       7.529  14.452  22.032  0.00  0.00     0.159 C 
BRANCH  13  15
HETATM   15  C   UNL     1       5.515  13.906  23.369  0.00  0.00     0.037 A 
HETATM   16  C   UNL     1       4.798  15.039  23.758  0.00  0.00     0.032 A 
HETATM   17  C   UNL     1       3.396  15.026  23.873  0.00  0.00     0.031 A 
HETATM   18  C   UNL     1       2.632  13.888  23.606  0.00  0.00     0.030 A 
HETATM   19  C   UNL     1       3.333  12.775  23.135  0.00  0.00     0.031 A 
HETATM   20  C   UNL     1       4.746  12.780  23.026  0.00  0.00     0.032 A 
BRANCH  18  21
HETATM   21  N   UNL     1       1.268  13.911  23.814  0.00  0.00    -0.377 N 
HETATM   22  C   UNL     1       0.250  13.588  22.803  0.00  0.00     0.149 C 
HETATM   23  C   UNL     1      -0.564  12.348  23.210  0.00  0.00     0.187 C 
HETATM   24  O   UNL     1      -1.101  12.465  24.538  0.00  0.00    -0.388 OA
HETATM   25  C   UNL     1      -0.037  12.651  25.486  0.00  0.00     0.187 C 
HETATM   26  C   UNL     1       0.754  13.936  25.196  0.00  0.00     0.149 C 
ENDBRANCH  18  21
ENDBRANCH  13  15
ENDBRANCH   8  11
BRANCH   9  27
HETATM   27  O   UNL     1       9.364  15.899  25.074  0.00  0.00    -0.360 OA
HETATM   28  H   UNL     1      10.041  16.593  24.945  0.00  0.00     0.217 HD
ENDBRANCH   9  27
BRANCH   1  29
HETATM   29  C   UNL     1      12.405  10.513  22.407  0.00  0.00     0.062 C 
BRANCH  29  30
HETATM   30  C   UNL     1      12.225  10.814  20.916  0.00  0.00     0.006 C 
BRANCH  30  31
HETATM   31  C   UNL     1      10.750  10.902  20.524  0.00  0.00    -0.004 C 
HETATM   32  C   UNL     1      10.441  12.231  19.852  0.00  0.00     0.005 C 
ENDBRANCH  30  31
ENDBRANCH  29  30
ENDBRANCH   1  29
TORSDOF 7
ENDMDL
MODEL 7
REMARK VINA RESULT:    -7.475      2.684      3.817
REMARK INTER + INTRA:         -11.423
REMARK INTER:                 -10.213
REMARK INTRA:                  -1.210
REMARK UNBOUND:                -1.108
REMARK  7 active torsions:
REMARK  status: ('A' for Active; 'I' for Inactive)
REMARK    1  A    between atoms: C_2  and  C_3 
REMARK    2  A    between atoms: C_3  and  C_4 
REMARK    3  A    between atoms: C_4  and  C_5 
REMARK    4  A    between atoms: C_12  and  C_16 
REMARK    5  A    between atoms: C_13  and  O_15 
REMARK       I    between atoms: C_16  and  N_18 
REMARK    6  A    between atoms: N_18  and  C_20 
REMARK    7  A    between atoms: C_23  and  N_26 
ROOT
HETATM    1  C   UNL     1      11.281  14.586  22.550  0.00  0.00     0.067 A 
HETATM    2  N   UNL     1      12.529  14.695  23.031  0.00  0.00    -0.178 NA
HETATM    3  N   UNL     1      12.368  14.698  24.361  0.00  0.00    -0.277 N 
HETATM    4  H   UNL     1      13.194  14.780  24.942  0.00  0.00     0.189 HD
HETATM    5  C   UNL     1      10.318  14.506  23.601  0.00  0.00     0.019 A 
HETATM    6  C   UNL     1      11.063  14.647  24.765  0.00  0.00     0.065 A 
HETATM    7  C   UNL     1       8.916  14.382  23.716  0.00  0.00     0.035 C 
HETATM    8  C   UNL     1       8.283  14.479  24.984  0.00  0.00     0.066 C 
HETATM    9  C   UNL     1       9.084  14.761  26.097  0.00  0.00     0.083 C 
HETATM   10  C   UNL     1      10.483  14.759  26.030  0.00  0.00     0.069 C 
ENDROOT
BRANCH   8  11
HETATM   11  C   UNL     1       6.781  14.420  24.967  0.00  0.00     0.260 C 
HETATM   12  O   UNL     1       6.254  15.537  25.005  0.00  0.00    -0.267 OA
HETATM   13  N   UNL     1       6.040  13.207  24.905  0.00  0.00    -0.318 N 
HETATM   14  C   UNL     1       6.645  11.885  25.072  0.00  0.00     0.159 C 
BRANCH  13  15
HETATM   15  C   UNL     1       4.595  13.228  24.705  0.00  0.00     0.037 A 
HETATM   16  C   UNL     1       3.727  13.660  25.710  0.00  0.00     0.032 A 
HETATM   17  C   UNL     1       2.332  13.661  25.535  0.00  0.00     0.031 A 
HETATM   18  C   UNL     1       1.723  13.234  24.353  0.00  0.00     0.030 A 
HETATM   19  C   UNL     1       2.586  12.880  23.312  0.00  0.00     0.031 A 
HETATM   20  C   UNL     1       3.993  12.869  23.486  0.00  0.00     0.032 A 
BRANCH  18  21
HETATM   21  N   UNL     1       0.347  13.180  24.267  0.00  0.00    -0.377 N 
HETATM   22  C   UNL     1      -0.412  12.707  23.100  0.00  0.00     0.149 C 
HETATM   23  C   UNL     1      -1.232  11.451  23.442  0.00  0.00     0.187 C 
HETATM   24  O   UNL     1      -2.048  11.638  24.611  0.00  0.00    -0.388 OA
HETATM   25  C   UNL     1      -1.223  11.973  25.739  0.00  0.00     0.187 C 
HETATM   26  C   UNL     1      -0.453  13.281  25.502  0.00  0.00     0.149 C 
ENDBRANCH  18  21
ENDBRANCH  13  15
ENDBRANCH   8  11
BRANCH   9  27
HETATM   27  O   UNL     1       8.586  15.146  27.312  0.00  0.00    -0.360 OA
HETATM   28  H   UNL     1       8.630  16.122  27.342  0.00  0.00     0.217 HD
ENDBRANCH   9  27
BRANCH   1  29
HETATM   29  C   UNL     1      11.065  14.643  21.070  0.00  0.00     0.062 C 
BRANCH  29  30
HETATM   30  C   UNL     1      10.783  13.267  20.457  0.00  0.00     0.006 C 
BRANCH  30  31
HETATM   31  C   UNL     1       9.303  13.083  20.120  0.00  0.00    -0.004 C 
HETATM   32  C   UNL     1       8.625  14.424  19.887  0.00  0.00     0.005 C 
ENDBRANCH  30  31
ENDBRANCH  29  30
ENDBRANCH   1  29
TORSDOF 7
ENDMDL
MODEL 8
REMARK VINA RESULT:    -7.398      1.720      2.491
REMARK INTER + INTRA:         -11.318
REMARK INTER:                 -10.595
REMARK INTRA:                  -0.723
REMARK UNBOUND:                -1.108
REMARK  7 active torsions:
REMARK  status: ('A' for Active; 'I' for Inactive)
REMARK    1  A    between atoms: C_2  and  C_3 
REMARK    2  A    between atoms: C_3  and  C_4 
REMARK    3  A    between atoms: C_4  and  C_5 
REMARK    4  A    between atoms: C_12  and  C_16 
REMARK    5  A    between atoms: C_13  and  O_15 
REMARK       I    between atoms: C_16  and  N_18 
REMARK    6  A    between atoms: N_18  and  C_20 
REMARK    7  A    between atoms: C_23  and  N_26 
ROOT
HETATM    1  C   UNL     1      12.106  13.273  24.139  0.00  0.00     0.067 A 
HETATM    2  N   UNL     1      13.197  13.796  23.559  0.00  0.00    -0.178 NA
HETATM    3  N   UNL     1      12.724  14.820  22.836  0.00  0.00    -0.277 N 
HETATM    4  H   UNL     1      13.384  15.368  22.295  0.00  0.00     0.189 HD
HETATM    5  C   UNL     1      10.925  13.993  23.783  0.00  0.00     0.019 A 
HETATM    6  C   UNL     1      11.365  14.954  22.881  0.00  0.00     0.065 A 
HETATM    7  C   UNL     1       9.544  13.926  24.067  0.00  0.00     0.035 C 
HETATM    8  C   UNL     1       8.623  14.767  23.387  0.00  0.00     0.066 C 
HETATM    9  C   UNL     1       9.122  15.614  22.391  0.00  0.00     0.083 C 
HETATM   10  C   UNL     1      10.496  15.793  22.181  0.00  0.00     0.069 C 
ENDROOT
BRANCH   8  11
HETATM   11  C   UNL     1       7.174  14.541  23.712  0.00  0.00     0.260 C 
HETATM   12  O   UNL     1       6.820  15.102  24.755  0.00  0.00    -0.267 OA
HETATM   13  N   UNL     1       6.295  13.769  22.902  0.00  0.00    -0.318 N 
HETATM   14  C   UNL     1       6.749  12.934  21.790  0.00  0.00     0.159 C 
BRANCH  13  15
HETATM   15  C   UNL     1       4.861  13.743  23.176  0.00  0.00     0.037 A 
HETATM   16  C   UNL     1       4.136  12.550  23.146  0.00  0.00     0.032 A 
HETATM   17  C   UNL     1       2.751  12.519  23.386  0.00  0.00     0.031 A 
HETATM   18  C   UNL     1       2.011  13.669  23.668  0.00  0.00     0.030 A 
HETATM   19  C   UNL     1       2.741  14.855  23.783  0.00  0.00     0.031 A 
HETATM   20  C   UNL     1       4.137  14.893  23.535  0.00  0.00     0.032 A 
BRANCH  18  21
HETATM   21  N   UNL     1       0.642  13.589  23.813  0.00  0.00    -0.377 N 
HETATM   22  C   UNL     1      -0.284  13.014  22.825  0.00  0.00     0.149 C 
HETATM   23  C   UNL     1      -1.004  11.778  23.391  0.00  0.00     0.187 C 
HETATM   24  O   UNL     1      -1.624  12.045  24.660  0.00  0.00    -0.388 OA
HETATM   25  C   UNL     1      -0.637  12.480  25.609  0.00  0.00     0.187 C 
HETATM   26  C   UNL     1       0.050  13.776  25.151  0.00  0.00     0.149 C 
ENDBRANCH  18  21
ENDBRANCH  13  15
ENDBRANCH   8  11
BRANCH   9  27
HETATM   27  O   UNL     1       8.331  16.267  21.484  0.00  0.00    -0.360 OA
HETATM   28  H   UNL     1       7.547  15.703  21.334  0.00  0.00     0.217 HD
ENDBRANCH   9  27
BRANCH   1  29
HETATM   29  C   UNL     1      12.245  12.033  24.966  0.00  0.00     0.062 C 
BRANCH  29  30
HETATM   30  C   UNL     1      12.713  10.824  24.150  0.00  0.00     0.006 C 
BRANCH  30  31
HETATM   31  C   UNL     1      11.869  10.623  22.890  0.00  0.00    -0.004 C 
HETATM   32  C   UNL     1      12.750  10.360  21.679  0.00  0.00     0.005 C 
ENDBRANCH  30  31
ENDBRANCH  29  30
ENDBRANCH   1  29
TORSDOF 7
ENDMDL
MODEL 9
REMARK VINA RESULT:    -7.322      1.848      2.725
REMARK INTER + INTRA:         -11.212
REMARK INTER:                 -10.104
REMARK INTRA:                  -1.108
REMARK UNBOUND:                -1.108
REMARK  7 active torsions:
REMARK  status: ('A' for Active; 'I' for Inactive)
REMARK    1  A    between atoms: C_2  and  C_3 
REMARK    2  A    between atoms: C_3  and  C_4 
REMARK    3  A    between atoms: C_4  and  C_5 
REMARK    4  A    between atoms: C_12  and  C_16 
REMARK    5  A    between atoms: C_13  and  O_15 
REMARK       I    between atoms: C_16  and  N_18 
REMARK    6  A    between atoms: N_18  and  C_20 
REMARK    7  A    between atoms: C_23  and  N_26 
ROOT
HETATM    1  C   UNL     1      10.815  11.738  23.434  0.00  0.00     0.067 A 
HETATM    2  N   UNL     1      12.025  12.248  23.158  0.00  0.00    -0.178 NA
HETATM    3  N   UNL     1      11.768  13.500  22.755  0.00  0.00    -0.277 N 
HETATM    4  H   UNL     1      12.550  14.084  22.483  0.00  0.00     0.189 HD
HETATM    5  C   UNL     1       9.778  12.694  23.214  0.00  0.00     0.019 A 
HETATM    6  C   UNL     1      10.438  13.809  22.710  0.00  0.00     0.065 A 
HETATM    7  C   UNL     1       8.372  12.745  23.328  0.00  0.00     0.035 C 
HETATM    8  C   UNL     1       7.649  13.877  22.864  0.00  0.00     0.066 C 
HETATM    9  C   UNL     1       8.367  14.904  22.242  0.00  0.00     0.083 C 
HETATM   10  C   UNL     1       9.768  14.937  22.233  0.00  0.00     0.069 C 
ENDROOT
BRANCH   8  11
HETATM   11  C   UNL     1       6.152  13.775  22.960  0.00  0.00     0.260 C 
HETATM   12  O   UNL     1       5.648  13.183  21.999  0.00  0.00    -0.267 OA
HETATM   13  N   UNL     1       5.393  14.296  24.044  0.00  0.00    -0.318 N 
HETATM   14  C   UNL     1       5.954  15.175  25.070  0.00  0.00     0.159 C 
BRANCH  13  15
HETATM   15  C   UNL     1       3.969  14.001  24.164  0.00  0.00     0.037 A 
HETATM   16  C   UNL     1       3.518  12.762  24.621  0.00  0.00     0.032 A 
HETATM   17  C   UNL     1       2.147  12.461  24.718  0.00  0.00     0.031 A 
HETATM   18  C   UNL     1       1.151  13.375  24.366  0.00  0.00     0.030 A 
HETATM   19  C   UNL     1       1.592  14.646  23.987  0.00  0.00     0.031 A 
HETATM   20  C   UNL     1       2.972  14.952  23.881  0.00  0.00     0.032 A 
BRANCH  18  21
HETATM   21  N   UNL     1      -0.175  12.996  24.403  0.00  0.00    -0.377 N 
HETATM   22  C   UNL     1      -0.924  12.417  23.277  0.00  0.00     0.149 C 
HETATM   23  C   UNL     1      -1.386  10.985  23.595  0.00  0.00     0.187 C 
HETATM   24  O   UNL     1      -2.092  10.909  24.845  0.00  0.00    -0.388 OA
HETATM   25  C   UNL     1      -1.252  11.372  25.915  0.00  0.00     0.187 C 
HETATM   26  C   UNL     1      -0.839  12.838  25.710  0.00  0.00     0.149 C 
ENDBRANCH  18  21
ENDBRANCH  13  15
ENDBRANCH   8  11
BRANCH   9  27
HETATM   27  O   UNL     1       7.782  15.908  21.518  0.00  0.00    -0.360 OA
HETATM   28  H   UNL     1       8.504  16.482  21.193  0.00  0.00     0.217 HD
ENDBRANCH   9  27
BRANCH   1  29
HETATM   29  C   UNL     1      10.706  10.299  23.834  0.00  0.00     0.062 C 
BRANCH  29  30
HETATM   30  C   UNL     1       9.674  10.067  24.942  0.00  0.00     0.006 C 
BRANCH  30  31
HETATM   31  C   UNL     1       8.662   8.985  24.563  0.00  0.00    -0.004 C 
HETATM   32  C   UNL     1       8.306   9.063  23.087  0.00  0.00     0.005 C 
ENDBRANCH  30  31
ENDBRANCH  29  30
ENDBRANCH   1  29
TORSDOF 7
ENDMDL
