MODEL 1
REMARK VINA RESULT:    -7.576      0.000      0.000
REMARK INTER + INTRA:         -11.718
REMARK INTER:                 -10.930
REMARK INTRA:                  -0.788
REMARK UNBOUND:                -1.485
REMARK  7 active torsions:
REMARK  status: ('A' for Active; 'I' for Inactive)
REMARK    1  A    between atoms: O_2  and  C_3 
REMARK    2  A    between atoms: C_6  and  C_9 
REMARK    3  A    between atoms: C_10  and  C_11 
REMARK       I    between atoms: C_11  and  N_13 
REMARK    4  A    between atoms: N_13  and  C_14 
REMARK    5  A    between atoms: C_18  and  C_19 
REMARK    6  A    between atoms: C_23  and  O_24 
REMARK    7  A    between atoms: C_26  and  O_27 
ROOT
HETATM    1  C   UNL     1       7.764  13.504  21.824  0.00  0.00     0.048 A 
HETATM    2  C   UNL     1       9.167  13.836  21.709  0.00  0.00     0.165 A 
HETATM    3  N   UNL     1       9.826  12.870  21.046  0.00  0.00    -0.121 NA
HETATM    4  O   UNL     1       8.898  11.955  20.672  0.00  0.00    -0.211 OA
HETATM    5  C   UNL     1       7.660  12.299  21.119  0.00  0.00     0.128 A 
ENDROOT
BRANCH   5   6
HETATM    6  C   UNL     1       6.626  11.353  20.656  0.00  0.00     0.036 A 
HETATM    7  C   UNL     1       6.032  11.472  19.388  0.00  0.00     0.044 A 
HETATM    8  C   UNL     1       5.097  10.533  18.938  0.00  0.00     0.068 A 
HETATM    9 CL   UNL     1       4.318  10.770  17.418  0.00  0.00    -0.081 Cl
HETATM   10  C   UNL     1       4.797   9.415  19.713  0.00  0.00     0.090 A 
HETATM   11  C   UNL     1       5.373   9.259  20.964  0.00  0.00     0.075 A 
HETATM   12  C   UNL     1       6.252  10.236  21.439  0.00  0.00     0.081 A 
BRANCH  10  13
HETATM   13  O   UNL     1       3.947   8.434  19.289  0.00  0.00    -0.359 OA
HETATM   14  H   UNL     1       3.464   8.777  18.514  0.00  0.00     0.217 HD
ENDBRANCH  10  13
BRANCH  12  15
HETATM   15  O   UNL     1       6.747  10.095  22.709  0.00  0.00    -0.360 OA
HETATM   16  H   UNL     1       7.244   9.265  22.780  0.00  0.00     0.217 HD
ENDBRANCH  12  15
ENDBRANCH   5   6
BRANCH   1  17
HETATM   17  C   UNL     1       6.609  14.229  22.365  0.00  0.00    -0.020 C 
HETATM   18  C   UNL     1       5.323  13.676  22.360  0.00  0.00     0.015 C 
HETATM   19  C   UNL     1       4.310  14.211  23.172  0.00  0.00     0.037 C 
HETATM   20  C   UNL     1       4.582  15.278  24.024  0.00  0.00     0.068 C 
HETATM   21  C   UNL     1       5.802  15.937  23.912  0.00  0.00     0.037 C 
HETATM   22  C   UNL     1       6.792  15.439  23.055  0.00  0.00     0.015 C 
BRANCH  20  23
HETATM   23  O   UNL     1       3.610  15.635  24.915  0.00  0.00    -0.356 OA
HETATM   24  C   UNL     1       2.584  14.651  25.063  0.00  0.00     0.210 C 
ENDBRANCH  20  23
ENDBRANCH   1  17
BRANCH   2  25
HETATM   25  C   UNL     1       9.967  14.988  22.153  0.00  0.00     0.273 C 
HETATM   26  O   UNL     1      10.172  15.991  21.480  0.00  0.00    -0.266 OA
HETATM   27  N   UNL     1      10.477  14.823  23.434  0.00  0.00    -0.356 N 
HETATM   28  H   UNL     1      10.129  13.999  23.936  0.00  0.00     0.162 HD
BRANCH  27  29
HETATM   29  C   UNL     1      11.231  15.827  24.146  0.00  0.00     0.118 C 
HETATM   30  C   UNL     1      10.926  15.811  25.636  0.00  0.00     0.026 C 
ENDBRANCH  27  29
ENDBRANCH   2  25
TORSDOF 7
ENDMDL
MODEL 2
REMARK VINA RESULT:    -7.547      1.804      2.319
REMARK INTER + INTRA:         -11.679
REMARK INTER:                 -10.869
REMARK INTRA:                  -0.809
REMARK UNBOUND:                -1.485
REMARK  7 active torsions:
REMARK  status: ('A' for Active; 'I' for Inactive)
REMARK    1  A    between atoms: O_2  and  C_3 
REMARK    2  A    between atoms: C_6  and  C_9 
REMARK    3  A    between atoms: C_10  and  C_11 
REMARK       I    between atoms: C_11  and  N_13 
REMARK    4  A    between atoms: N_13  and  C_14 
REMARK    5  A    between atoms: C_18  and  C_19 
REMARK    6  A    between atoms: C_23  and  O_24 
REMARK    7  A    between atoms: C_26  and  O_27 
ROOT
HETATM    1  C   UNL     1       7.755  13.507  22.051  0.00  0.00     0.048 A 
HETATM    2  C   UNL     1       9.120  13.965  21.925  0.00  0.00     0.165 A 
HETATM    3  N   UNL     1       9.905  12.980  21.455  0.00  0.00    -0.121 NA
HETATM    4  O   UNL     1       9.094  11.920  21.214  0.00  0.00    -0.211 OA
HETATM    5  C   UNL     1       7.808  12.197  21.559  0.00  0.00     0.128 A 
ENDROOT
BRANCH   5   6
HETATM    6  C   UNL     1       6.899  11.081  21.232  0.00  0.00     0.036 A 
HETATM    7  C   UNL     1       6.223  10.362  22.233  0.00  0.00     0.044 A 
HETATM    8  C   UNL     1       5.319   9.346  21.905  0.00  0.00     0.068 A 
HETATM    9 CL   UNL     1       4.585   8.422  23.163  0.00  0.00    -0.081 Cl
HETATM   10  C   UNL     1       5.014   9.082  20.571  0.00  0.00     0.090 A 
HETATM   11  C   UNL     1       5.654   9.778  19.559  0.00  0.00     0.075 A 
HETATM   12  C   UNL     1       6.608  10.743  19.889  0.00  0.00     0.081 A 
BRANCH  10  13
HETATM   13  O   UNL     1       4.086   8.149  20.201  0.00  0.00    -0.359 OA
HETATM   14  H   UNL     1       4.003   7.510  20.933  0.00  0.00     0.217 HD
ENDBRANCH  10  13
BRANCH  12  15
HETATM   15  O   UNL     1       7.280  11.362  18.868  0.00  0.00    -0.360 OA
HETATM   16  H   UNL     1       6.915  12.250  18.723  0.00  0.00     0.217 HD
ENDBRANCH  12  15
ENDBRANCH   5   6
BRANCH   1  17
HETATM   17  C   UNL     1       6.508  14.182  22.427  0.00  0.00    -0.020 C 
HETATM   18  C   UNL     1       5.263  13.551  22.307  0.00  0.00     0.015 C 
HETATM   19  C   UNL     1       4.137  14.057  22.976  0.00  0.00     0.037 C 
HETATM   20  C   UNL     1       4.251  15.174  23.800  0.00  0.00     0.068 C 
HETATM   21  C   UNL     1       5.437  15.901  23.791  0.00  0.00     0.037 C 
HETATM   22  C   UNL     1       6.544  15.429  23.074  0.00  0.00     0.015 C 
BRANCH  20  23
HETATM   23  O   UNL     1       3.166  15.508  24.561  0.00  0.00    -0.356 OA
HETATM   24  C   UNL     1       2.309  14.401  24.847  0.00  0.00     0.210 C 
ENDBRANCH  20  23
ENDBRANCH   1  17
BRANCH   2  25
HETATM   25  C   UNL     1       9.777  15.255  22.191  0.00  0.00     0.273 C 
HETATM   26  O   UNL     1      10.491  15.482  23.160  0.00  0.00    -0.266 OA
HETATM   27  N   UNL     1       9.503  16.206  21.217  0.00  0.00    -0.356 N 
HETATM   28  H   UNL     1       8.999  15.853  20.397  0.00  0.00     0.162 HD
BRANCH  27  29
HETATM   29  C   UNL     1      10.077  17.530  21.187  0.00  0.00     0.118 C 
HETATM   30  C   UNL     1       9.160  18.527  20.496  0.00  0.00     0.026 C 
ENDBRANCH  27  29
ENDBRANCH   2  25
TORSDOF 7
ENDMDL
MODEL 3
REMARK VINA RESULT:    -7.503      1.135      1.492
REMARK INTER + INTRA:         -11.619
REMARK INTER:                 -10.912
REMARK INTRA:                  -0.707
REMARK UNBOUND:                -1.485
REMARK  7 active torsions:
REMARK  status: ('A' for Active; 'I' for Inactive)
REMARK    1  A    between atoms: O_2  and  C_3 
REMARK    2  A    between atoms: C_6  and  C_9 
REMARK    3  A    between atoms: C_10  and  C_11 
REMARK       I    between atoms: C_11  and  N_13 
REMARK    4  A    between atoms: N_13  and  C_14 
REMARK    5  A    between atoms: C_18  and  C_19 
REMARK    6  A    between atoms: C_23  and  O_24 
REMARK    7  A    between atoms: C_26  and  O_27 
ROOT
HETATM    1  C   UNL     1       7.620  13.494  21.803  0.00  0.00     0.048 A 
HETATM    2  C   UNL     1       9.006  13.884  21.664  0.00  0.00     0.165 A 
HETATM    3  N   UNL     1       9.706  12.920  21.042  0.00  0.00    -0.121 NA
HETATM    4  O   UNL     1       8.819  11.947  20.716  0.00  0.00    -0.211 OA
HETATM    5  C   UNL     1       7.569  12.254  21.155  0.00  0.00     0.128 A 
ENDROOT
BRANCH   5   6
HETATM    6  C   UNL     1       6.578  11.241  20.742  0.00  0.00     0.036 A 
HETATM    7  C   UNL     1       6.076  11.191  19.430  0.00  0.00     0.044 A 
HETATM    8  C   UNL     1       5.183  10.189  19.037  0.00  0.00     0.068 A 
HETATM    9 CL   UNL     1       4.515  10.221  17.447  0.00  0.00    -0.081 Cl
HETATM   10  C   UNL     1       4.835   9.172  19.924  0.00  0.00     0.090 A 
HETATM   11  C   UNL     1       5.319   9.184  21.222  0.00  0.00     0.075 A 
HETATM   12  C   UNL     1       6.154  10.225  21.632  0.00  0.00     0.081 A 
BRANCH  10  13
HETATM   13  O   UNL     1       4.023   8.132  19.567  0.00  0.00    -0.359 OA
HETATM   14  H   UNL     1       4.455   7.661  18.830  0.00  0.00     0.217 HD
ENDBRANCH  10  13
BRANCH  12  15
HETATM   15  O   UNL     1       6.556  10.253  22.941  0.00  0.00    -0.360 OA
HETATM   16  H   UNL     1       7.036   9.438  23.157  0.00  0.00     0.217 HD
ENDBRANCH  12  15
ENDBRANCH   5   6
BRANCH   1  17
HETATM   17  C   UNL     1       6.436  14.189  22.318  0.00  0.00    -0.020 C 
HETATM   18  C   UNL     1       5.172  13.587  22.323  0.00  0.00     0.015 C 
HETATM   19  C   UNL     1       4.135  14.107  23.115  0.00  0.00     0.037 C 
HETATM   20  C   UNL     1       4.361  15.207  23.937  0.00  0.00     0.068 C 
HETATM   21  C   UNL     1       5.556  15.909  23.811  0.00  0.00     0.037 C 
HETATM   22  C   UNL     1       6.569  15.425  22.973  0.00  0.00     0.015 C 
BRANCH  20  23
HETATM   23  O   UNL     1       3.371  15.553  24.813  0.00  0.00    -0.356 OA
HETATM   24  C   UNL     1       2.370  14.545  24.967  0.00  0.00     0.210 C 
ENDBRANCH  20  23
ENDBRANCH   1  17
BRANCH   2  25
HETATM   25  C   UNL     1       9.754  15.091  22.050  0.00  0.00     0.273 C 
HETATM   26  O   UNL     1      10.530  15.153  22.996  0.00  0.00    -0.266 OA
HETATM   27  N   UNL     1       9.490  16.172  21.220  0.00  0.00    -0.356 N 
HETATM   28  H   UNL     1       8.924  15.955  20.393  0.00  0.00     0.162 HD
BRANCH  27  29
HETATM   29  C   UNL     1      10.144  17.455  21.321  0.00  0.00     0.118 C 
HETATM   30  C   UNL     1       9.407  18.528  20.533  0.00  0.00     0.026 C 
ENDBRANCH  27  29
ENDBRANCH   2  25
TORSDOF 7
ENDMDL
MODEL 4
REMARK VINA RESULT:    -7.341      1.439      1.775
REMARK INTER + INTRA:         -11.400
REMARK INTER:                 -10.554
REMARK INTRA:                  -0.846
REMARK UNBOUND:                -1.485
REMARK  7 active torsions:
REMARK  status: ('A' for Active; 'I' for Inactive)
REMARK    1  A    between atoms: O_2  and  C_3 
REMARK    2  A    between atoms: C_6  and  C_9 
REMARK    3  A    between atoms: C_10  and  C_11 
REMARK       I    between atoms: C_11  and  N_13 
REMARK    4  A    between atoms: N_13  and  C_14 
REMARK    5  A    between atoms: C_18  and  C_19 
REMARK    6  A    between atoms: C_23  and  O_24 
REMARK    7  A    between atoms: C_26  and  O_27 
ROOT
HETATM    1  C   UNL     1       7.871  13.128  22.017  0.00  0.00     0.048 A 
HETATM    2  C   UNL     1       9.273  13.479  22.013  0.00  0.00     0.165 A 
HETATM    3  N   UNL     1      10.018  12.435  21.609  0.00  0.00    -0.121 NA
HETATM    4  O   UNL     1       9.151  11.441  21.291  0.00  0.00    -0.211 OA
HETATM    5  C   UNL     1       7.865  11.818  21.524  0.00  0.00     0.128 A 
ENDROOT
BRANCH   5   6
HETATM    6  C   UNL     1       6.905  10.775  21.112  0.00  0.00     0.036 A 
HETATM    7  C   UNL     1       6.234   9.976  22.054  0.00  0.00     0.044 A 
HETATM    8  C   UNL     1       5.282   9.033  21.652  0.00  0.00     0.068 A 
HETATM    9 CL   UNL     1       4.554   8.005  22.830  0.00  0.00    -0.081 Cl
HETATM   10  C   UNL     1       4.925   8.924  20.310  0.00  0.00     0.090 A 
HETATM   11  C   UNL     1       5.558   9.704  19.355  0.00  0.00     0.075 A 
HETATM   12  C   UNL     1       6.559  10.594  19.752  0.00  0.00     0.081 A 
BRANCH  10  13
HETATM   13  O   UNL     1       3.951   8.070  19.876  0.00  0.00    -0.359 OA
HETATM   14  H   UNL     1       4.358   7.466  19.226  0.00  0.00     0.217 HD
ENDBRANCH  10  13
BRANCH  12  15
HETATM   15  O   UNL     1       7.221  11.296  18.779  0.00  0.00    -0.360 OA
HETATM   16  H   UNL     1       7.845  11.917  19.187  0.00  0.00     0.217 HD
ENDBRANCH  12  15
ENDBRANCH   5   6
BRANCH   1  17
HETATM   17  C   UNL     1       6.652  13.899  22.285  0.00  0.00    -0.020 C 
HETATM   18  C   UNL     1       5.379  13.325  22.178  0.00  0.00     0.015 C 
HETATM   19  C   UNL     1       4.262  13.949  22.758  0.00  0.00     0.037 C 
HETATM   20  C   UNL     1       4.411  15.128  23.482  0.00  0.00     0.068 C 
HETATM   21  C   UNL     1       5.636  15.788  23.450  0.00  0.00     0.037 C 
HETATM   22  C   UNL     1       6.736  15.196  22.818  0.00  0.00     0.015 C 
BRANCH  20  23
HETATM   23  O   UNL     1       3.324  15.587  24.170  0.00  0.00    -0.356 OA
HETATM   24  C   UNL     1       2.660  14.572  24.927  0.00  0.00     0.210 C 
ENDBRANCH  20  23
ENDBRANCH   1  17
BRANCH   2  25
HETATM   25  C   UNL     1      10.003  14.713  22.342  0.00  0.00     0.273 C 
HETATM   26  O   UNL     1      10.143  15.661  21.579  0.00  0.00    -0.266 OA
HETATM   27  N   UNL     1      10.526  14.698  23.628  0.00  0.00    -0.356 N 
HETATM   28  H   UNL     1      10.232  13.904  24.207  0.00  0.00     0.162 HD
BRANCH  27  29
HETATM   29  C   UNL     1      11.220  15.807  24.239  0.00  0.00     0.118 C 
HETATM   30  C   UNL     1      10.839  15.974  25.702  0.00  0.00     0.026 C 
ENDBRANCH  27  29
ENDBRANCH   2  25
TORSDOF 7
ENDMDL
MODEL 5
REMARK VINA RESULT:    -7.139      2.717      5.614
REMARK INTER + INTRA:         -11.128
REMARK INTER:                  -9.661
REMARK INTRA:                  -1.467
REMARK UNBOUND:                -1.485
REMARK  7 active torsions:
REMARK  status: ('A' for Active; 'I' for Inactive)
REMARK    1  A    between atoms: O_2  and  C_3 
REMARK    2  A    between atoms: C_6  and  C_9 
REMARK    3  A    between atoms: C_10  and  C_11 
REMARK       I    between atoms: C_11  and  N_13 
REMARK    4  A    between atoms: N_13  and  C_14 
REMARK    5  A    between atoms: C_18  and  C_19 
REMARK    6  A    between atoms: C_23  and  O_24 
REMARK    7  A    between atoms: C_26  and  O_27 
ROOT
HETATM    1  C   UNL     1       5.074  14.091  22.813  0.00  0.00     0.048 A 
HETATM    2  C   UNL     1       6.005  15.118  23.224  0.00  0.00     0.165 A 
HETATM    3  N   UNL     1       5.344  16.187  23.704  0.00  0.00    -0.121 NA
HETATM    4  O   UNL     1       4.025  15.870  23.677  0.00  0.00    -0.211 OA
HETATM    5  C   UNL     1       3.828  14.632  23.151  0.00  0.00     0.128 A 
ENDROOT
BRANCH   5   6
HETATM    6  C   UNL     1       2.404  14.242  23.185  0.00  0.00     0.036 A 
HETATM    7  C   UNL     1       1.729  13.812  22.030  0.00  0.00     0.044 A 
HETATM    8  C   UNL     1       0.397  13.388  22.089  0.00  0.00     0.068 A 
HETATM    9 CL   UNL     1      -0.425  12.962  20.634  0.00  0.00    -0.081 Cl
HETATM   10  C   UNL     1      -0.261  13.312  23.315  0.00  0.00     0.090 A 
HETATM   11  C   UNL     1       0.378  13.718  24.476  0.00  0.00     0.075 A 
HETATM   12  C   UNL     1       1.684  14.207  24.403  0.00  0.00     0.081 A 
BRANCH  10  13
HETATM   13  O   UNL     1      -1.537  12.838  23.435  0.00  0.00    -0.359 OA
HETATM   14  H   UNL     1      -1.598  12.018  22.910  0.00  0.00     0.217 HD
ENDBRANCH  10  13
BRANCH  12  15
HETATM   15  O   UNL     1       2.264  14.673  25.553  0.00  0.00    -0.360 OA
HETATM   16  H   UNL     1       1.585  14.810  26.233  0.00  0.00     0.217 HD
ENDBRANCH  12  15
ENDBRANCH   5   6
BRANCH   1  17
HETATM   17  C   UNL     1       5.256  12.725  22.309  0.00  0.00    -0.020 C 
HETATM   18  C   UNL     1       4.778  11.612  23.012  0.00  0.00     0.015 C 
HETATM   19  C   UNL     1       4.649  10.366  22.375  0.00  0.00     0.037 C 
HETATM   20  C   UNL     1       4.958  10.230  21.025  0.00  0.00     0.068 C 
HETATM   21  C   UNL     1       5.589  11.283  20.369  0.00  0.00     0.037 C 
HETATM   22  C   UNL     1       5.775  12.507  21.022  0.00  0.00     0.015 C 
BRANCH  20  23
HETATM   23  O   UNL     1       4.642   9.045  20.423  0.00  0.00    -0.356 OA
HETATM   24  C   UNL     1       5.684   8.537  19.586  0.00  0.00     0.210 C 
ENDBRANCH  20  23
ENDBRANCH   1  17
BRANCH   2  25
HETATM   25  C   UNL     1       7.474  15.202  23.227  0.00  0.00     0.273 C 
HETATM   26  O   UNL     1       8.167  15.185  24.236  0.00  0.00    -0.266 OA
HETATM   27  N   UNL     1       8.005  15.305  21.949  0.00  0.00    -0.356 N 
HETATM   28  H   UNL     1       7.330  15.181  21.187  0.00  0.00     0.162 HD
BRANCH  27  29
HETATM   29  C   UNL     1       9.418  15.325  21.653  0.00  0.00     0.118 C 
HETATM   30  C   UNL     1       9.976  16.740  21.657  0.00  0.00     0.026 C 
ENDBRANCH  27  29
ENDBRANCH   2  25
TORSDOF 7
ENDMDL
MODEL 6
REMARK VINA RESULT:    -7.136      3.110      6.260
REMARK INTER + INTRA:         -11.124
REMARK INTER:                 -10.050
REMARK INTRA:                  -1.075
REMARK UNBOUND:                -1.485
REMARK  7 active torsions:
REMARK  status: ('A' for Active; 'I' for Inactive)
REMARK    1  A    between atoms: O_2  and  C_3 
REMARK    2  A    between atoms: C_6  and  C_9 
REMARK    3  A    between atoms: C_10  and  C_11 
REMARK       I    between atoms: C_11  and  N_13 
REMARK    4  A    between atoms: N_13  and  C_14 
REMARK    5  A    between atoms: C_18  and  C_19 
REMARK    6  A    between atoms: C_23  and  O_24 
REMARK    7  A    between atoms: C_26  and  O_27 
ROOT
HETATM    1  C   UNL     1       5.901  12.081  20.584  0.00  0.00     0.048 A 
HETATM    2  C   UNL     1       5.624  11.418  19.329  0.00  0.00     0.165 A 
HETATM    3  N   UNL     1       6.770  11.079  18.713  0.00  0.00    -0.121 NA
HETATM    4  O   UNL     1       7.778  11.439  19.546  0.00  0.00    -0.211 OA
HETATM    5  C   UNL     1       7.298  12.040  20.668  0.00  0.00     0.128 A 
ENDROOT
BRANCH   5   6
HETATM    6  C   UNL     1       8.378  12.369  21.619  0.00  0.00     0.036 A 
HETATM    7  C   UNL     1       8.799  13.694  21.827  0.00  0.00     0.044 A 
HETATM    8  C   UNL     1       9.782  13.997  22.775  0.00  0.00     0.068 A 
HETATM    9 CL   UNL     1      10.341  15.621  22.931  0.00  0.00    -0.081 Cl
HETATM   10  C   UNL     1      10.306  12.994  23.588  0.00  0.00     0.090 A 
HETATM   11  C   UNL     1       9.906  11.678  23.417  0.00  0.00     0.075 A 
HETATM   12  C   UNL     1       8.977  11.370  22.422  0.00  0.00     0.081 A 
BRANCH  10  13
HETATM   13  O   UNL     1      11.215  13.249  24.576  0.00  0.00    -0.359 OA
HETATM   14  H   UNL     1      11.394  14.208  24.571  0.00  0.00     0.217 HD
ENDBRANCH  10  13
BRANCH  12  15
HETATM   15  O   UNL     1       8.656  10.052  22.224  0.00  0.00    -0.360 OA
HETATM   16  H   UNL     1       8.193   9.705  23.003  0.00  0.00     0.217 HD
ENDBRANCH  12  15
ENDBRANCH   5   6
BRANCH   1  17
HETATM   17  C   UNL     1       5.038  12.571  21.664  0.00  0.00    -0.020 C 
HETATM   18  C   UNL     1       5.294  13.781  22.320  0.00  0.00     0.015 C 
HETATM   19  C   UNL     1       4.297  14.401  23.092  0.00  0.00     0.037 C 
HETATM   20  C   UNL     1       3.028  13.838  23.186  0.00  0.00     0.068 C 
HETATM   21  C   UNL     1       2.818  12.559  22.680  0.00  0.00     0.037 C 
HETATM   22  C   UNL     1       3.833  11.913  21.962  0.00  0.00     0.015 C 
BRANCH  20  23
HETATM   23  O   UNL     1       2.056  14.576  23.800  0.00  0.00    -0.356 OA
HETATM   24  C   UNL     1       0.780  13.930  23.823  0.00  0.00     0.210 C 
ENDBRANCH  20  23
ENDBRANCH   1  17
BRANCH   2  25
HETATM   25  C   UNL     1       4.377  11.053  18.639  0.00  0.00     0.273 C 
HETATM   26  O   UNL     1       3.374  11.755  18.600  0.00  0.00    -0.266 OA
HETATM   27  N   UNL     1       4.451   9.811  18.023  0.00  0.00    -0.356 N 
HETATM   28  H   UNL     1       5.383   9.382  18.022  0.00  0.00     0.162 HD
BRANCH  27  29
HETATM   29  C   UNL     1       3.402   9.239  17.213  0.00  0.00     0.118 C 
HETATM   30  C   UNL     1       3.930   8.150  16.292  0.00  0.00     0.026 C 
ENDBRANCH  27  29
ENDBRANCH   2  25
TORSDOF 7
ENDMDL
MODEL 7
REMARK VINA RESULT:    -6.928      1.109      1.196
REMARK INTER + INTRA:         -10.842
REMARK INTER:                  -9.785
REMARK INTRA:                  -1.058
REMARK UNBOUND:                -1.485
REMARK  7 active torsions:
REMARK  status: ('A' for Active; 'I' for Inactive)
REMARK    1  A    between atoms: O_2  and  C_3 
REMARK    2  A    between atoms: C_6  and  C_9 
REMARK    3  A    between atoms: C_10  and  C_11 
REMARK       I    between atoms: C_11  and  N_13 
REMARK    4  A    between atoms: N_13  and  C_14 
REMARK    5  A    between atoms: C_18  and  C_19 
REMARK    6  A    between atoms: C_23  and  O_24 
REMARK    7  A    between atoms: C_26  and  O_27 
ROOT
HETATM    1  C   UNL     1       7.043  13.096  22.075  0.00  0.00     0.048 A 
HETATM    2  C   UNL     1       8.408  13.500  22.328  0.00  0.00     0.165 A 
HETATM    3  N   UNL     1       9.266  12.687  21.688  0.00  0.00    -0.121 NA
HETATM    4  O   UNL     1       8.512  11.810  20.980  0.00  0.00    -0.211 OA
HETATM    5  C   UNL     1       7.184  12.022  21.188  0.00  0.00     0.128 A 
ENDROOT
BRANCH   5   6
HETATM    6  C   UNL     1       6.349  11.125  20.366  0.00  0.00     0.036 A 
HETATM    7  C   UNL     1       5.556  11.614  19.314  0.00  0.00     0.044 A 
HETATM    8  C   UNL     1       4.816  10.745  18.505  0.00  0.00     0.068 A 
HETATM    9 CL   UNL     1       3.778  11.391  17.288  0.00  0.00    -0.081 Cl
HETATM   10  C   UNL     1       4.916   9.366  18.680  0.00  0.00     0.090 A 
HETATM   11  C   UNL     1       5.698   8.849  19.701  0.00  0.00     0.075 A 
HETATM   12  C   UNL     1       6.379   9.723  20.551  0.00  0.00     0.081 A 
BRANCH  10  13
HETATM   13  O   UNL     1       4.271   8.473  17.872  0.00  0.00    -0.359 OA
HETATM   14  H   UNL     1       4.948   7.892  17.476  0.00  0.00     0.217 HD
ENDBRANCH  10  13
BRANCH  12  15
HETATM   15  O   UNL     1       7.083   9.187  21.598  0.00  0.00    -0.360 OA
HETATM   16  H   UNL     1       7.054   9.789  22.358  0.00  0.00     0.217 HD
ENDBRANCH  12  15
ENDBRANCH   5   6
BRANCH   1  17
HETATM   17  C   UNL     1       5.747  13.671  22.451  0.00  0.00    -0.020 C 
HETATM   18  C   UNL     1       4.598  12.881  22.576  0.00  0.00     0.015 C 
HETATM   19  C   UNL     1       3.468  13.362  23.257  0.00  0.00     0.037 C 
HETATM   20  C   UNL     1       3.489  14.621  23.851  0.00  0.00     0.068 C 
HETATM   21  C   UNL     1       4.557  15.474  23.589  0.00  0.00     0.037 C 
HETATM   22  C   UNL     1       5.658  15.013  22.856  0.00  0.00     0.015 C 
BRANCH  20  23
HETATM   23  O   UNL     1       2.431  14.959  24.648  0.00  0.00    -0.356 OA
HETATM   24  C   UNL     1       1.184  14.428  24.193  0.00  0.00     0.210 C 
ENDBRANCH  20  23
ENDBRANCH   1  17
BRANCH   2  25
HETATM   25  C   UNL     1       9.004  14.594  23.112  0.00  0.00     0.273 C 
HETATM   26  O   UNL     1       9.280  15.699  22.661  0.00  0.00    -0.266 OA
HETATM   27  N   UNL     1       9.227  14.243  24.436  0.00  0.00    -0.356 N 
HETATM   28  H   UNL     1       8.836  13.336  24.716  0.00  0.00     0.162 HD
BRANCH  27  29
HETATM   29  C   UNL     1       9.729  15.145  25.445  0.00  0.00     0.118 C 
HETATM   30  C   UNL     1      11.243  15.062  25.574  0.00  0.00     0.026 C 
ENDBRANCH  27  29
ENDBRANCH   2  25
TORSDOF 7
ENDMDL
MODEL 8
REMARK VINA RESULT:    -6.901      3.396      7.190
REMARK INTER + INTRA:         -10.807
REMARK INTER:                  -9.431
REMARK INTRA:                  -1.376
REMARK UNBOUND:                -1.485
REMARK  7 active torsions:
REMARK  status: ('A' for Active; 'I' for Inactive)
REMARK    1  A    between atoms: O_2  and  C_3 
REMARK    2  A    between atoms: C_6  and  C_9 
REMARK    3  A    between atoms: C_10  and  C_11 
REMARK       I    between atoms: C_11  and  N_13 
REMARK    4  A    between atoms: N_13  and  C_14 
REMARK    5  A    between atoms: C_18  and  C_19 
REMARK    6  A    between atoms: C_23  and  O_24 
REMARK    7  A    between atoms: C_26  and  O_27 
ROOT
HETATM    1  C   UNL     1       6.076  10.271  20.632  0.00  0.00     0.048 A 
HETATM    2  C   UNL     1       5.885   9.608  19.362  0.00  0.00     0.165 A 
HETATM    3  N   UNL     1       6.375  10.360  18.361  0.00  0.00    -0.121 NA
HETATM    4  O   UNL     1       6.932  11.455  18.936  0.00  0.00    -0.211 OA
HETATM    5  C   UNL     1       6.770  11.436  20.287  0.00  0.00     0.128 A 
ENDROOT
BRANCH   5   6
HETATM    6  C   UNL     1       7.437  12.582  20.935  0.00  0.00     0.036 A 
HETATM    7  C   UNL     1       6.719  13.518  21.699  0.00  0.00     0.044 A 
HETATM    8  C   UNL     1       7.372  14.565  22.358  0.00  0.00     0.068 A 
HETATM    9 CL   UNL     1       6.444  15.748  23.204  0.00  0.00    -0.081 Cl
HETATM   10  C   UNL     1       8.762  14.653  22.329  0.00  0.00     0.090 A 
HETATM   11  C   UNL     1       9.503  13.741  21.594  0.00  0.00     0.075 A 
HETATM   12  C   UNL     1       8.842  12.739  20.881  0.00  0.00     0.081 A 
BRANCH  10  13
HETATM   13  O   UNL     1       9.452  15.614  23.014  0.00  0.00    -0.359 OA
HETATM   14  H   UNL     1      10.176  15.170  23.494  0.00  0.00     0.217 HD
ENDBRANCH  10  13
BRANCH  12  15
HETATM   15  O   UNL     1       9.594  11.899  20.102  0.00  0.00    -0.360 OA
HETATM   16  H   UNL     1       9.014  11.287  19.621  0.00  0.00     0.217 HD
ENDBRANCH  12  15
ENDBRANCH   5   6
BRANCH   1  17
HETATM   17  C   UNL     1       5.808   9.867  22.017  0.00  0.00    -0.020 C 
HETATM   18  C   UNL     1       4.527   9.952  22.575  0.00  0.00     0.015 C 
HETATM   19  C   UNL     1       4.213   9.256  23.754  0.00  0.00     0.037 C 
HETATM   20  C   UNL     1       5.162   8.441  24.364  0.00  0.00     0.068 C 
HETATM   21  C   UNL     1       6.478   8.485  23.915  0.00  0.00     0.037 C 
HETATM   22  C   UNL     1       6.805   9.228  22.774  0.00  0.00     0.015 C 
BRANCH  20  23
HETATM   23  O   UNL     1       4.744   7.655  25.401  0.00  0.00    -0.356 OA
HETATM   24  C   UNL     1       3.824   8.310  26.277  0.00  0.00     0.210 C 
ENDBRANCH  20  23
ENDBRANCH   1  17
BRANCH   2  25
HETATM   25  C   UNL     1       5.291   8.317  18.979  0.00  0.00     0.273 C 
HETATM   26  O   UNL     1       5.754   7.224  19.281  0.00  0.00    -0.266 OA
HETATM   27  N   UNL     1       4.132   8.464  18.229  0.00  0.00    -0.356 N 
HETATM   28  H   UNL     1       3.782   9.425  18.154  0.00  0.00     0.162 HD
BRANCH  27  29
HETATM   29  C   UNL     1       3.304   7.367  17.787  0.00  0.00     0.118 C 
HETATM   30  C   UNL     1       2.670   7.648  16.433  0.00  0.00     0.026 C 
ENDBRANCH  27  29
ENDBRANCH   2  25
TORSDOF 7
ENDMDL
MODEL 9
REMARK VINA RESULT:    -6.867      3.544      7.153
REMARK INTER + INTRA:         -10.760
REMARK INTER:                  -9.276
REMARK INTRA:                  -1.485
REMARK UNBOUND:                -1.485
REMARK  7 active torsions:
REMARK  status: ('A' for Active; 'I' for Inactive)
REMARK    1  A    between atoms: O_2  and  C_3 
REMARK    2  A    between atoms: C_6  and  C_9 
REMARK    3  A    between atoms: C_10  and  C_11 
REMARK       I    between atoms: C_11  and  N_13 
REMARK    4  A    between atoms: N_13  and  C_14 
REMARK    5  A    between atoms: C_18  and  C_19 
REMARK    6  A    between atoms: C_23  and  O_24 
REMARK    7  A    between atoms: C_26  and  O_27 
ROOT
HETATM    1  C   UNL     1       5.360  11.288  20.537  0.00  0.00     0.048 A 
HETATM    2  C   UNL     1       4.801  10.917  19.256  0.00  0.00     0.165 A 
HETATM    3  N   UNL     1       3.600  11.496  19.081  0.00  0.00    -0.121 NA
HETATM    4  O   UNL     1       3.385  12.276  20.169  0.00  0.00    -0.211 OA
HETATM    5  C   UNL     1       4.410  12.176  21.057  0.00  0.00     0.128 A 
ENDROOT
BRANCH   5   6
HETATM    6  C   UNL     1       4.227  13.077  22.211  0.00  0.00     0.036 A 
HETATM    7  C   UNL     1       5.241  13.957  22.629  0.00  0.00     0.044 A 
HETATM    8  C   UNL     1       5.031  14.848  23.686  0.00  0.00     0.068 A 
HETATM    9 CL   UNL     1       6.332  15.842  24.232  0.00  0.00    -0.081 Cl
HETATM   10  C   UNL     1       3.782  14.932  24.297  0.00  0.00     0.090 A 
HETATM   11  C   UNL     1       2.756  14.087  23.903  0.00  0.00     0.075 A 
HETATM   12  C   UNL     1       2.990  13.150  22.894  0.00  0.00     0.081 A 
BRANCH  10  13
HETATM   13  O   UNL     1       3.505  15.834  25.285  0.00  0.00    -0.359 OA
HETATM   14  H   UNL     1       4.315  16.356  25.442  0.00  0.00     0.217 HD
ENDBRANCH  10  13
BRANCH  12  15
HETATM   15  O   UNL     1       1.983  12.276  22.579  0.00  0.00    -0.360 OA
HETATM   16  H   UNL     1       2.018  12.059  21.634  0.00  0.00     0.217 HD
ENDBRANCH  12  15
ENDBRANCH   5   6
BRANCH   1  17
HETATM   17  C   UNL     1       6.649  11.012  21.179  0.00  0.00    -0.020 C 
HETATM   18  C   UNL     1       7.786  11.785  20.912  0.00  0.00     0.015 C 
HETATM   19  C   UNL     1       8.899  11.740  21.767  0.00  0.00     0.037 C 
HETATM   20  C   UNL     1       8.874  10.952  22.914  0.00  0.00     0.068 C 
HETATM   21  C   UNL     1       7.823  10.058  23.095  0.00  0.00     0.037 C 
HETATM   22  C   UNL     1       6.740  10.059  22.208  0.00  0.00     0.015 C 
BRANCH  20  23
HETATM   23  O   UNL     1       9.910  11.087  23.794  0.00  0.00    -0.356 OA
HETATM   24  C   UNL     1       9.571  11.842  24.960  0.00  0.00     0.210 C 
ENDBRANCH  20  23
ENDBRANCH   1  17
BRANCH   2  25
HETATM   25  C   UNL     1       5.286  10.071  18.154  0.00  0.00     0.273 C 
HETATM   26  O   UNL     1       6.417   9.605  18.084  0.00  0.00    -0.266 OA
HETATM   27  N   UNL     1       4.318   9.851  17.183  0.00  0.00    -0.356 N 
HETATM   28  H   UNL     1       3.380  10.189  17.422  0.00  0.00     0.162 HD
BRANCH  27  29
HETATM   29  C   UNL     1       4.497   8.996  16.034  0.00  0.00     0.118 C 
HETATM   30  C   UNL     1       3.761   7.674  16.192  0.00  0.00     0.026 C 
ENDBRANCH  27  29
ENDBRANCH   2  25
TORSDOF 7
ENDMDL
