MODEL 1
REMARK VINA RESULT:    -8.145      0.000      0.000
REMARK INTER + INTRA:         -11.608
REMARK INTER:                 -10.145
REMARK INTRA:                  -1.463
REMARK UNBOUND:                -1.558
REMARK  4 active torsions:
REMARK  status: ('A' for Active; 'I' for Inactive)
REMARK    1  A    between atoms: N_10  and  C_14 
REMARK    2  A    between atoms: C_17  and  C_18 
REMARK       I    between atoms: C_18  and  N_20 
REMARK    3  A    between atoms: C_22  and  N_23 
REMARK    4  A    between atoms: N_23  and  C_24 
ROOT
HETATM    1  C   UNL     1       7.284  10.544  21.964  0.00  0.00     0.041 C 
HETATM    2  C   UNL     1       7.151   9.654  23.031  0.00  0.00     0.031 C 
HETATM    3  C   UNL     1       6.379   8.496  22.907  0.00  0.00     0.022 C 
HETATM    4  C   UNL     1       5.717   8.213  21.708  0.00  0.00     0.058 C 
HETATM    5  C   UNL     1       6.473  10.329  20.832  0.00  0.00     0.060 C 
HETATM    6  C   UNL     1       5.752   9.140  20.642  0.00  0.00     0.046 C 
ENDROOT
BRANCH   1   7
HETATM    7  N   UNL     1       8.278  11.594  21.943  0.00  0.00    -0.324 N 
HETATM    8  C   UNL     1       8.147  12.955  22.234  0.00  0.00     0.031 C 
HETATM    9  C   UNL     1       6.922  13.682  22.704  0.00  0.00     0.067 C 
HETATM   10  C   UNL     1       9.383  13.571  22.066  0.00  0.00     0.040 C 
HETATM   11  C   UNL     1       7.245  15.097  23.266  0.00  0.00    -0.036 C 
HETATM   12  C   UNL     1       8.277  15.818  22.371  0.00  0.00     0.093 C 
HETATM   13  C   UNL     1       7.775  15.003  24.714  0.00  0.00     0.015 C 
HETATM   14  C   UNL     1       5.941  15.917  23.292  0.00  0.00     0.015 C 
HETATM   15  C   UNL     1       9.556  15.012  22.207  0.00  0.00     0.162 C 
HETATM   16  O   UNL     1      10.654  15.562  22.132  0.00  0.00    -0.292 OA
HETATM   17  C   UNL     1      10.342  12.564  21.841  0.00  0.00    -0.030 C 
HETATM   18  C   UNL     1       9.637  11.385  21.734  0.00  0.00     0.105 C 
HETATM   19  C   UNL     1      11.817  12.732  21.772  0.00  0.00     0.050 C 
ENDBRANCH   1   7
BRANCH   6  20
HETATM   20  N   UNL     1       5.063   8.870  19.465  0.00  0.00    -0.384 N 
HETATM   21  H   UNL     1       4.378   8.121  19.632  0.00  0.00     0.160 HD
BRANCH  20  22
HETATM   22  C   UNL     1       5.561   8.986  18.100  0.00  0.00     0.082 C 
HETATM   23  C   UNL     1       4.618   9.887  17.289  0.00  0.00     0.032 C 
HETATM   24  C   UNL     1       3.213   9.298  17.153  0.00  0.00     0.080 C 
HETATM   25  C   UNL     1       3.254   7.853  16.704  0.00  0.00     0.127 C 
HETATM   26  C   UNL     1       4.233   6.939  17.402  0.00  0.00     0.080 C 
HETATM   27  O   UNL     1       2.450   7.415  15.882  0.00  0.00    -0.298 OA
HETATM   28  C   UNL     1       5.608   7.594  17.450  0.00  0.00     0.032 C 
ENDBRANCH  20  22
ENDBRANCH   6  20
BRANCH   4  29
HETATM   29  C   UNL     1       5.039   6.893  21.543  0.00  0.00     0.251 C 
HETATM   30  O   UNL     1       5.441   6.052  20.749  0.00  0.00    -0.268 OA
HETATM   31  N   UNL     1       3.941   6.639  22.324  0.00  0.00    -0.366 N 
HETATM   32  H   UNL     1       3.457   7.351  22.853  0.00  0.00     0.159 HD
HETATM   33  H   UNL     1       3.454   5.768  22.153  0.00  0.00     0.159 HD
ENDBRANCH   4  29
TORSDOF 4
ENDMDL
MODEL 2
REMARK VINA RESULT:    -8.041      3.226      5.608
REMARK INTER + INTRA:         -11.479
REMARK INTER:                 -10.042
REMARK INTRA:                  -1.437
REMARK UNBOUND:                -1.558
REMARK  4 active torsions:
REMARK  status: ('A' for Active; 'I' for Inactive)
REMARK    1  A    between atoms: N_10  and  C_14 
REMARK    2  A    between atoms: C_17  and  C_18 
REMARK       I    between atoms: C_18  and  N_20 
REMARK    3  A    between atoms: C_22  and  N_23 
REMARK    4  A    between atoms: N_23  and  C_24 
ROOT
HETATM    1  C   UNL     1       6.532  15.183  22.831  0.00  0.00     0.041 C 
HETATM    2  C   UNL     1       5.644  16.109  23.381  0.00  0.00     0.031 C 
HETATM    3  C   UNL     1       4.389  15.709  23.849  0.00  0.00     0.022 C 
HETATM    4  C   UNL     1       3.998  14.370  23.764  0.00  0.00     0.058 C 
HETATM    5  C   UNL     1       6.051  13.879  22.597  0.00  0.00     0.060 C 
HETATM    6  C   UNL     1       4.832  13.425  23.126  0.00  0.00     0.046 C 
ENDROOT
BRANCH   1   7
HETATM    7  N   UNL     1       7.926  15.485  22.593  0.00  0.00    -0.324 N 
HETATM    8  C   UNL     1       9.068  14.748  22.916  0.00  0.00     0.031 C 
HETATM    9  C   UNL     1       9.139  13.397  23.565  0.00  0.00     0.067 C 
HETATM   10  C   UNL     1      10.191  15.450  22.492  0.00  0.00     0.040 C 
HETATM   11  C   UNL     1      10.546  12.744  23.434  0.00  0.00    -0.036 C 
HETATM   12  C   UNL     1      11.657  13.784  23.693  0.00  0.00     0.093 C 
HETATM   13  C   UNL     1      10.729  12.110  22.038  0.00  0.00     0.015 C 
HETATM   14  C   UNL     1      10.657  11.620  24.482  0.00  0.00     0.015 C 
HETATM   15  C   UNL     1      11.546  14.985  22.765  0.00  0.00     0.162 C 
HETATM   16  O   UNL     1      12.546  15.556  22.335  0.00  0.00    -0.292 OA
HETATM   17  C   UNL     1       9.751  16.554  21.735  0.00  0.00    -0.030 C 
HETATM   18  C   UNL     1       8.378  16.569  21.848  0.00  0.00     0.105 C 
HETATM   19  C   UNL     1      10.592  17.490  20.945  0.00  0.00     0.050 C 
ENDBRANCH   1   7
BRANCH   6  20
HETATM   20  N   UNL     1       4.424  12.101  23.013  0.00  0.00    -0.384 N 
HETATM   21  H   UNL     1       3.505  12.064  22.550  0.00  0.00     0.160 HD
BRANCH  20  22
HETATM   22  C   UNL     1       4.726  10.999  23.918  0.00  0.00     0.082 C 
HETATM   23  C   UNL     1       6.249  10.832  24.027  0.00  0.00     0.032 C 
HETATM   24  C   UNL     1       6.895  10.445  22.697  0.00  0.00     0.080 C 
HETATM   25  C   UNL     1       6.175   9.287  22.042  0.00  0.00     0.127 C 
HETATM   26  C   UNL     1       4.667   9.350  21.990  0.00  0.00     0.080 C 
HETATM   27  O   UNL     1       6.793   8.385  21.478  0.00  0.00    -0.298 OA
HETATM   28  C   UNL     1       4.117   9.700  23.368  0.00  0.00     0.032 C 
ENDBRANCH  20  22
ENDBRANCH   6  20
BRANCH   4  29
HETATM   29  C   UNL     1       2.728  13.937  24.421  0.00  0.00     0.251 C 
HETATM   30  O   UNL     1       1.976  13.120  23.906  0.00  0.00    -0.268 OA
HETATM   31  N   UNL     1       2.426  14.484  25.642  0.00  0.00    -0.366 N 
HETATM   32  H   UNL     1       2.901  15.289  26.025  0.00  0.00     0.159 HD
HETATM   33  H   UNL     1       1.531  14.232  26.043  0.00  0.00     0.159 HD
ENDBRANCH   4  29
TORSDOF 4
ENDMDL
MODEL 3
REMARK VINA RESULT:    -7.942      2.662      4.023
REMARK INTER + INTRA:         -11.357
REMARK INTER:                 -10.021
REMARK INTRA:                  -1.336
REMARK UNBOUND:                -1.558
REMARK  4 active torsions:
REMARK  status: ('A' for Active; 'I' for Inactive)
REMARK    1  A    between atoms: N_10  and  C_14 
REMARK    2  A    between atoms: C_17  and  C_18 
REMARK       I    between atoms: C_18  and  N_20 
REMARK    3  A    between atoms: C_22  and  N_23 
REMARK    4  A    between atoms: N_23  and  C_24 
ROOT
HETATM    1  C   UNL     1       4.886  10.619  23.301  0.00  0.00     0.041 C 
HETATM    2  C   UNL     1       5.676   9.793  24.102  0.00  0.00     0.031 C 
HETATM    3  C   UNL     1       6.283   8.650  23.574  0.00  0.00     0.022 C 
HETATM    4  C   UNL     1       6.101   8.309  22.231  0.00  0.00     0.058 C 
HETATM    5  C   UNL     1       4.576  10.164  22.003  0.00  0.00     0.060 C 
HETATM    6  C   UNL     1       5.231   9.070  21.418  0.00  0.00     0.046 C 
ENDROOT
BRANCH   1   7
HETATM    7  N   UNL     1       4.470  11.941  23.714  0.00  0.00    -0.324 N 
HETATM    8  C   UNL     1       5.240  13.063  24.030  0.00  0.00     0.031 C 
HETATM    9  C   UNL     1       6.733  13.201  23.971  0.00  0.00     0.067 C 
HETATM   10  C   UNL     1       4.391  14.107  24.381  0.00  0.00     0.040 C 
HETATM   11  C   UNL     1       7.200  14.684  24.042  0.00  0.00    -0.036 C 
HETATM   12  C   UNL     1       6.394  15.461  25.105  0.00  0.00     0.093 C 
HETATM   13  C   UNL     1       7.058  15.369  22.665  0.00  0.00     0.015 C 
HETATM   14  C   UNL     1       8.691  14.705  24.429  0.00  0.00     0.015 C 
HETATM   15  C   UNL     1       4.895  15.392  24.852  0.00  0.00     0.162 C 
HETATM   16  O   UNL     1       4.160  16.347  25.097  0.00  0.00    -0.292 OA
HETATM   17  C   UNL     1       3.069  13.699  24.113  0.00  0.00    -0.030 C 
HETATM   18  C   UNL     1       3.148  12.372  23.748  0.00  0.00     0.105 C 
HETATM   19  C   UNL     1       1.844  14.537  24.174  0.00  0.00     0.050 C 
ENDBRANCH   1   7
BRANCH   6  20
HETATM   20  N   UNL     1       5.025   8.706  20.091  0.00  0.00    -0.384 N 
HETATM   21  H   UNL     1       4.514   7.813  20.055  0.00  0.00     0.160 HD
BRANCH  20  22
HETATM   22  C   UNL     1       5.882   8.997  18.949  0.00  0.00     0.082 C 
HETATM   23  C   UNL     1       6.268  10.483  18.966  0.00  0.00     0.032 C 
HETATM   24  C   UNL     1       5.060  11.407  18.803  0.00  0.00     0.080 C 
HETATM   25  C   UNL     1       4.191  10.989  17.637  0.00  0.00     0.127 C 
HETATM   26  C   UNL     1       3.856   9.522  17.514  0.00  0.00     0.080 C 
HETATM   27  O   UNL     1       3.687  11.822  16.884  0.00  0.00    -0.298 OA
HETATM   28  C   UNL     1       5.125   8.689  17.647  0.00  0.00     0.032 C 
ENDBRANCH  20  22
ENDBRANCH   6  20
BRANCH   4  29
HETATM   29  C   UNL     1       6.892   7.184  21.649  0.00  0.00     0.251 C 
HETATM   30  O   UNL     1       6.356   6.211  21.135  0.00  0.00    -0.268 OA
HETATM   31  N   UNL     1       8.260   7.276  21.699  0.00  0.00    -0.366 N 
HETATM   32  H   UNL     1       8.752   7.951  22.267  0.00  0.00     0.159 HD
HETATM   33  H   UNL     1       8.780   6.476  21.361  0.00  0.00     0.159 HD
ENDBRANCH   4  29
TORSDOF 4
ENDMDL
MODEL 4
REMARK VINA RESULT:    -7.880      2.149      8.365
REMARK INTER + INTRA:         -11.281
REMARK INTER:                  -9.702
REMARK INTRA:                  -1.579
REMARK UNBOUND:                -1.558
REMARK  4 active torsions:
REMARK  status: ('A' for Active; 'I' for Inactive)
REMARK    1  A    between atoms: N_10  and  C_14 
REMARK    2  A    between atoms: C_17  and  C_18 
REMARK       I    between atoms: C_18  and  N_20 
REMARK    3  A    between atoms: C_22  and  N_23 
REMARK    4  A    between atoms: N_23  and  C_24 
ROOT
HETATM    1  C   UNL     1       6.265  10.752  21.505  0.00  0.00     0.041 C 
HETATM    2  C   UNL     1       5.544  10.636  22.695  0.00  0.00     0.031 C 
HETATM    3  C   UNL     1       6.081  11.082  23.905  0.00  0.00     0.022 C 
HETATM    4  C   UNL     1       7.359  11.646  23.946  0.00  0.00     0.058 C 
HETATM    5  C   UNL     1       7.611  11.161  21.597  0.00  0.00     0.060 C 
HETATM    6  C   UNL     1       8.153  11.691  22.778  0.00  0.00     0.046 C 
ENDROOT
BRANCH   1   7
HETATM    7  N   UNL     1       5.660  10.569  20.205  0.00  0.00    -0.324 N 
HETATM    8  C   UNL     1       5.509   9.407  19.444  0.00  0.00     0.031 C 
HETATM    9  C   UNL     1       5.901   8.006  19.816  0.00  0.00     0.067 C 
HETATM   10  C   UNL     1       4.870   9.729  18.252  0.00  0.00     0.040 C 
HETATM   11  C   UNL     1       5.254   6.938  18.886  0.00  0.00    -0.036 C 
HETATM   12  C   UNL     1       5.311   7.391  17.411  0.00  0.00     0.093 C 
HETATM   13  C   UNL     1       3.792   6.665  19.300  0.00  0.00     0.015 C 
HETATM   14  C   UNL     1       6.043   5.623  19.038  0.00  0.00     0.015 C 
HETATM   15  C   UNL     1       4.647   8.743  17.200  0.00  0.00     0.162 C 
HETATM   16  O   UNL     1       4.021   8.996  16.172  0.00  0.00    -0.292 OA
HETATM   17  C   UNL     1       4.452  11.072  18.334  0.00  0.00    -0.030 C 
HETATM   18  C   UNL     1       4.979  11.562  19.509  0.00  0.00     0.105 C 
HETATM   19  C   UNL     1       3.589  11.801  17.369  0.00  0.00     0.050 C 
ENDBRANCH   1   7
BRANCH   6  20
HETATM   20  N   UNL     1       9.437  12.221  22.830  0.00  0.00    -0.384 N 
HETATM   21  H   UNL     1       9.766  12.228  23.806  0.00  0.00     0.160 HD
BRANCH  20  22
HETATM   22  C   UNL     1      10.015  13.234  21.956  0.00  0.00     0.082 C 
HETATM   23  C   UNL     1      11.493  13.438  22.319  0.00  0.00     0.032 C 
HETATM   24  C   UNL     1      11.682  13.980  23.736  0.00  0.00     0.080 C 
HETATM   25  C   UNL     1      10.792  15.175  24.001  0.00  0.00     0.127 C 
HETATM   26  C   UNL     1       9.347  15.069  23.578  0.00  0.00     0.080 C 
HETATM   27  O   UNL     1      11.201  16.149  24.632  0.00  0.00    -0.298 OA
HETATM   28  C   UNL     1       9.264  14.562  22.143  0.00  0.00     0.032 C 
ENDBRANCH  20  22
ENDBRANCH   6  20
BRANCH   4  29
HETATM   29  C   UNL     1       7.843  12.268  25.215  0.00  0.00     0.251 C 
HETATM   30  O   UNL     1       8.998  12.145  25.599  0.00  0.00    -0.268 OA
HETATM   31  N   UNL     1       6.943  13.001  25.947  0.00  0.00    -0.366 N 
HETATM   32  H   UNL     1       5.947  12.983  25.784  0.00  0.00     0.159 HD
HETATM   33  H   UNL     1       7.268  13.359  26.836  0.00  0.00     0.159 HD
ENDBRANCH   4  29
TORSDOF 4
ENDMDL
MODEL 5
REMARK VINA RESULT:    -7.873      1.970      2.645
REMARK INTER + INTRA:         -11.272
REMARK INTER:                 -10.165
REMARK INTRA:                  -1.107
REMARK UNBOUND:                -1.558
REMARK  4 active torsions:
REMARK  status: ('A' for Active; 'I' for Inactive)
REMARK    1  A    between atoms: N_10  and  C_14 
REMARK    2  A    between atoms: C_17  and  C_18 
REMARK       I    between atoms: C_18  and  N_20 
REMARK    3  A    between atoms: C_22  and  N_23 
REMARK    4  A    between atoms: N_23  and  C_24 
ROOT
HETATM    1  C   UNL     1       9.051  10.555  23.223  0.00  0.00     0.041 C 
HETATM    2  C   UNL     1       9.519   9.585  24.111  0.00  0.00     0.031 C 
HETATM    3  C   UNL     1       9.172   8.241  23.951  0.00  0.00     0.022 C 
HETATM    4  C   UNL     1       8.339   7.846  22.901  0.00  0.00     0.058 C 
HETATM    5  C   UNL     1       8.078  10.162  22.282  0.00  0.00     0.060 C 
HETATM    6  C   UNL     1       7.770   8.814  22.043  0.00  0.00     0.046 C 
ENDROOT
BRANCH   1   7
HETATM    7  N   UNL     1       9.594  11.895  23.173  0.00  0.00    -0.324 N 
HETATM    8  C   UNL     1       8.935  13.125  23.114  0.00  0.00     0.031 C 
HETATM    9  C   UNL     1       7.456  13.379  23.138  0.00  0.00     0.067 C 
HETATM   10  C   UNL     1       9.883  14.142  23.074  0.00  0.00     0.040 C 
HETATM   11  C   UNL     1       7.110  14.871  23.420  0.00  0.00    -0.036 C 
HETATM   12  C   UNL     1       8.042  15.808  22.622  0.00  0.00     0.093 C 
HETATM   13  C   UNL     1       7.213  15.181  24.930  0.00  0.00     0.015 C 
HETATM   14  C   UNL     1       5.654  15.121  22.984  0.00  0.00     0.015 C 
HETATM   15  C   UNL     1       9.511  15.543  22.918  0.00  0.00     0.162 C 
HETATM   16  O   UNL     1      10.332  16.459  22.953  0.00  0.00    -0.292 OA
HETATM   17  C   UNL     1      11.149  13.562  23.291  0.00  0.00    -0.030 C 
HETATM   18  C   UNL     1      10.944  12.200  23.308  0.00  0.00     0.105 C 
HETATM   19  C   UNL     1      12.436  14.275  23.496  0.00  0.00     0.050 C 
ENDBRANCH   1   7
BRANCH   6  20
HETATM   20  N   UNL     1       6.914   8.419  21.021  0.00  0.00    -0.384 N 
HETATM   21  H   UNL     1       7.396   8.513  20.115  0.00  0.00     0.160 HD
BRANCH  20  22
HETATM   22  C   UNL     1       5.462   8.533  20.986  0.00  0.00     0.082 C 
HETATM   23  C   UNL     1       4.937   7.955  19.664  0.00  0.00     0.032 C 
HETATM   24  C   UNL     1       5.427   8.735  18.444  0.00  0.00     0.080 C 
HETATM   25  C   UNL     1       5.220  10.225  18.612  0.00  0.00     0.127 C 
HETATM   26  C   UNL     1       5.631  10.835  19.931  0.00  0.00     0.080 C 
HETATM   27  O   UNL     1       4.836  10.927  17.678  0.00  0.00    -0.298 OA
HETATM   28  C   UNL     1       5.061  10.014  21.081  0.00  0.00     0.032 C 
ENDBRANCH  20  22
ENDBRANCH   6  20
BRANCH   4  29
HETATM   29  C   UNL     1       8.119   6.390  22.651  0.00  0.00     0.251 C 
HETATM   30  O   UNL     1       8.305   5.884  21.552  0.00  0.00    -0.268 OA
HETATM   31  N   UNL     1       7.705   5.619  23.708  0.00  0.00    -0.366 N 
HETATM   32  H   UNL     1       7.359   6.003  24.575  0.00  0.00     0.159 HD
HETATM   33  H   UNL     1       7.497   4.649  23.507  0.00  0.00     0.159 HD
ENDBRANCH   4  29
TORSDOF 4
ENDMDL
MODEL 6
REMARK VINA RESULT:    -7.743      2.686      7.983
REMARK INTER + INTRA:         -11.111
REMARK INTER:                  -9.691
REMARK INTRA:                  -1.420
REMARK UNBOUND:                -1.558
REMARK  4 active torsions:
REMARK  status: ('A' for Active; 'I' for Inactive)
REMARK    1  A    between atoms: N_10  and  C_14 
REMARK    2  A    between atoms: C_17  and  C_18 
REMARK       I    between atoms: C_18  and  N_20 
REMARK    3  A    between atoms: C_22  and  N_23 
REMARK    4  A    between atoms: N_23  and  C_24 
ROOT
HETATM    1  C   UNL     1       7.128  11.804  20.755  0.00  0.00     0.041 C 
HETATM    2  C   UNL     1       8.366  12.237  20.276  0.00  0.00     0.031 C 
HETATM    3  C   UNL     1       8.916  13.448  20.706  0.00  0.00     0.022 C 
HETATM    4  C   UNL     1       8.228  14.253  21.619  0.00  0.00     0.058 C 
HETATM    5  C   UNL     1       6.378  12.707  21.534  0.00  0.00     0.060 C 
HETATM    6  C   UNL     1       6.932  13.890  22.048  0.00  0.00     0.046 C 
ENDROOT
BRANCH   1   7
HETATM    7  N   UNL     1       6.647  10.453  20.565  0.00  0.00    -0.324 N 
HETATM    8  C   UNL     1       6.942   9.290  21.280  0.00  0.00     0.031 C 
HETATM    9  C   UNL     1       7.818   9.151  22.491  0.00  0.00     0.067 C 
HETATM   10  C   UNL     1       6.243   8.227  20.719  0.00  0.00     0.040 C 
HETATM   11  C   UNL     1       7.619   7.789  23.219  0.00  0.00    -0.036 C 
HETATM   12  C   UNL     1       7.522   6.634  22.199  0.00  0.00     0.093 C 
HETATM   13  C   UNL     1       6.356   7.821  24.106  0.00  0.00     0.015 C 
HETATM   14  C   UNL     1       8.835   7.549  24.135  0.00  0.00     0.015 C 
HETATM   15  C   UNL     1       6.409   6.856  21.186  0.00  0.00     0.162 C 
HETATM   16  O   UNL     1       5.745   5.917  20.748  0.00  0.00    -0.292 OA
HETATM   17  C   UNL     1       5.359   8.752  19.754  0.00  0.00    -0.030 C 
HETATM   18  C   UNL     1       5.656  10.094  19.657  0.00  0.00     0.105 C 
HETATM   19  C   UNL     1       4.299   8.016  19.018  0.00  0.00     0.050 C 
ENDBRANCH   1   7
BRANCH   6  20
HETATM   20  N   UNL     1       6.237  14.712  22.929  0.00  0.00    -0.384 N 
HETATM   21  H   UNL     1       6.192  15.666  22.546  0.00  0.00     0.160 HD
BRANCH  20  22
HETATM   22  C   UNL     1       6.177  14.604  24.381  0.00  0.00     0.082 C 
HETATM   23  C   UNL     1       5.436  13.316  24.767  0.00  0.00     0.032 C 
HETATM   24  C   UNL     1       3.978  13.314  24.307  0.00  0.00     0.080 C 
HETATM   25  C   UNL     1       3.269  14.594  24.692  0.00  0.00     0.127 C 
HETATM   26  C   UNL     1       3.991  15.893  24.423  0.00  0.00     0.080 C 
HETATM   27  O   UNL     1       2.110  14.584  25.105  0.00  0.00    -0.298 OA
HETATM   28  C   UNL     1       5.417  15.811  24.955  0.00  0.00     0.032 C 
ENDBRANCH  20  22
ENDBRANCH   6  20
BRANCH   4  29
HETATM   29  C   UNL     1       8.908  15.453  22.190  0.00  0.00     0.251 C 
HETATM   30  O   UNL     1       9.260  15.505  23.361  0.00  0.00    -0.268 OA
HETATM   31  N   UNL     1       9.139  16.513  21.350  0.00  0.00    -0.366 N 
HETATM   32  H   UNL     1       8.712  16.605  20.439  0.00  0.00     0.159 HD
HETATM   33  H   UNL     1       9.539  17.344  21.768  0.00  0.00     0.159 HD
ENDBRANCH   4  29
TORSDOF 4
ENDMDL
MODEL 7
REMARK VINA RESULT:    -7.665      2.607      4.247
REMARK INTER + INTRA:         -11.015
REMARK INTER:                  -9.457
REMARK INTRA:                  -1.558
REMARK UNBOUND:                -1.558
REMARK  4 active torsions:
REMARK  status: ('A' for Active; 'I' for Inactive)
REMARK    1  A    between atoms: N_10  and  C_14 
REMARK    2  A    between atoms: C_17  and  C_18 
REMARK       I    between atoms: C_18  and  N_20 
REMARK    3  A    between atoms: C_22  and  N_23 
REMARK    4  A    between atoms: N_23  and  C_24 
ROOT
HETATM    1  C   UNL     1       5.546  10.770  19.014  0.00  0.00     0.041 C 
HETATM    2  C   UNL     1       4.602  11.185  18.073  0.00  0.00     0.031 C 
HETATM    3  C   UNL     1       3.960  10.260  17.246  0.00  0.00     0.022 C 
HETATM    4  C   UNL     1       4.261   8.899  17.341  0.00  0.00     0.058 C 
HETATM    5  C   UNL     1       5.958   9.423  18.972  0.00  0.00     0.060 C 
HETATM    6  C   UNL     1       5.280   8.456  18.214  0.00  0.00     0.046 C 
ENDROOT
BRANCH   1   7
HETATM    7  N   UNL     1       6.028  11.633  20.069  0.00  0.00    -0.324 N 
HETATM    8  C   UNL     1       5.318  12.317  21.060  0.00  0.00     0.031 C 
HETATM    9  C   UNL     1       3.840  12.289  21.319  0.00  0.00     0.067 C 
HETATM   10  C   UNL     1       6.217  13.029  21.847  0.00  0.00     0.040 C 
HETATM   11  C   UNL     1       3.466  12.876  22.711  0.00  0.00    -0.036 C 
HETATM   12  C   UNL     1       4.276  14.158  22.999  0.00  0.00     0.093 C 
HETATM   13  C   UNL     1       3.706  11.836  23.827  0.00  0.00     0.015 C 
HETATM   14  C   UNL     1       1.964  13.223  22.702  0.00  0.00     0.015 C 
HETATM   15  C   UNL     1       5.777  13.919  22.915  0.00  0.00     0.162 C 
HETATM   16  O   UNL     1       6.560  14.499  23.665  0.00  0.00    -0.292 OA
HETATM   17  C   UNL     1       7.520  12.653  21.465  0.00  0.00    -0.030 C 
HETATM   18  C   UNL     1       7.372  11.838  20.363  0.00  0.00     0.105 C 
HETATM   19  C   UNL     1       8.792  13.027  22.135  0.00  0.00     0.050 C 
ENDBRANCH   1   7
BRANCH   6  20
HETATM   20  N   UNL     1       5.599   7.104  18.281  0.00  0.00    -0.384 N 
HETATM   21  H   UNL     1       5.224   6.622  17.452  0.00  0.00     0.160 HD
BRANCH  20  22
HETATM   22  C   UNL     1       5.756   6.288  19.477  0.00  0.00     0.082 C 
HETATM   23  C   UNL     1       6.176   4.867  19.073  0.00  0.00     0.032 C 
HETATM   24  C   UNL     1       5.113   4.152  18.239  0.00  0.00     0.080 C 
HETATM   25  C   UNL     1       3.743   4.253  18.875  0.00  0.00     0.127 C 
HETATM   26  C   UNL     1       3.312   5.609  19.378  0.00  0.00     0.080 C 
HETATM   27  O   UNL     1       2.970   3.296  18.883  0.00  0.00    -0.298 OA
HETATM   28  C   UNL     1       4.418   6.220  20.231  0.00  0.00     0.032 C 
ENDBRANCH  20  22
ENDBRANCH   6  20
BRANCH   4  29
HETATM   29  C   UNL     1       3.444   7.915  16.570  0.00  0.00     0.251 C 
HETATM   30  O   UNL     1       3.935   7.196  15.709  0.00  0.00    -0.268 OA
HETATM   31  N   UNL     1       2.106   7.831  16.863  0.00  0.00    -0.366 N 
HETATM   32  H   UNL     1       1.614   8.515  17.418  0.00  0.00     0.159 HD
HETATM   33  H   UNL     1       1.554   7.208  16.286  0.00  0.00     0.159 HD
ENDBRANCH   4  29
TORSDOF 4
ENDMDL
MODEL 8
REMARK VINA RESULT:    -7.639      1.942      8.559
REMARK INTER + INTRA:         -10.983
REMARK INTER:                  -9.360
REMARK INTRA:                  -1.623
REMARK UNBOUND:                -1.558
REMARK  4 active torsions:
REMARK  status: ('A' for Active; 'I' for Inactive)
REMARK    1  A    between atoms: N_10  and  C_14 
REMARK    2  A    between atoms: C_17  and  C_18 
REMARK       I    between atoms: C_18  and  N_20 
REMARK    3  A    between atoms: C_22  and  N_23 
REMARK    4  A    between atoms: N_23  and  C_24 
ROOT
HETATM    1  C   UNL     1       6.206  11.571  20.711  0.00  0.00     0.041 C 
HETATM    2  C   UNL     1       5.278  12.375  21.375  0.00  0.00     0.031 C 
HETATM    3  C   UNL     1       5.690  13.497  22.098  0.00  0.00     0.022 C 
HETATM    4  C   UNL     1       7.046  13.829  22.176  0.00  0.00     0.058 C 
HETATM    5  C   UNL     1       7.572  11.822  20.946  0.00  0.00     0.060 C 
HETATM    6  C   UNL     1       8.018  12.984  21.597  0.00  0.00     0.046 C 
ENDROOT
BRANCH   1   7
HETATM    7  N   UNL     1       5.819  10.577  19.734  0.00  0.00    -0.324 N 
HETATM    8  C   UNL     1       5.882   9.183  19.803  0.00  0.00     0.031 C 
HETATM    9  C   UNL     1       6.330   8.338  20.960  0.00  0.00     0.067 C 
HETATM   10  C   UNL     1       5.403   8.652  18.611  0.00  0.00     0.040 C 
HETATM   11  C   UNL     1       5.921   6.844  20.802  0.00  0.00    -0.036 C 
HETATM   12  C   UNL     1       6.160   6.362  19.355  0.00  0.00     0.093 C 
HETATM   13  C   UNL     1       4.442   6.637  21.192  0.00  0.00     0.015 C 
HETATM   14  C   UNL     1       6.786   6.003  21.761  0.00  0.00     0.015 C 
HETATM   15  C   UNL     1       5.423   7.219  18.336  0.00  0.00     0.162 C 
HETATM   16  O   UNL     1       4.939   6.729  17.318  0.00  0.00    -0.292 OA
HETATM   17  C   UNL     1       4.867   9.709  17.849  0.00  0.00    -0.030 C 
HETATM   18  C   UNL     1       5.169  10.864  18.538  0.00  0.00     0.105 C 
HETATM   19  C   UNL     1       4.100   9.600  16.582  0.00  0.00     0.050 C 
ENDBRANCH   1   7
BRANCH   6  20
HETATM   20  N   UNL     1       9.368  13.300  21.706  0.00  0.00    -0.384 N 
HETATM   21  H   UNL     1       9.636  13.928  20.936  0.00  0.00     0.160 HD
BRANCH  20  22
HETATM   22  C   UNL     1      10.432  12.467  22.251  0.00  0.00     0.082 C 
HETATM   23  C   UNL     1      10.082  12.071  23.693  0.00  0.00     0.032 C 
HETATM   24  C   UNL     1       9.999  13.276  24.631  0.00  0.00     0.080 C 
HETATM   25  C   UNL     1      11.209  14.175  24.495  0.00  0.00     0.127 C 
HETATM   26  C   UNL     1      11.658  14.523  23.096  0.00  0.00     0.080 C 
HETATM   27  O   UNL     1      11.737  14.690  25.479  0.00  0.00    -0.298 OA
HETATM   28  C   UNL     1      11.751  13.256  22.253  0.00  0.00     0.032 C 
ENDBRANCH  20  22
ENDBRANCH   6  20
BRANCH   4  29
HETATM   29  C   UNL     1       7.446  15.122  22.809  0.00  0.00     0.251 C 
HETATM   30  O   UNL     1       8.237  15.888  22.276  0.00  0.00    -0.268 OA
HETATM   31  N   UNL     1       6.886  15.436  24.021  0.00  0.00    -0.366 N 
HETATM   32  H   UNL     1       6.381  14.772  24.590  0.00  0.00     0.159 HD
HETATM   33  H   UNL     1       7.217  16.282  24.468  0.00  0.00     0.159 HD
ENDBRANCH   4  29
TORSDOF 4
ENDMDL
MODEL 9
REMARK VINA RESULT:    -7.629      4.152      5.340
REMARK INTER + INTRA:         -10.971
REMARK INTER:                  -9.973
REMARK INTRA:                  -0.998
REMARK UNBOUND:                -1.558
REMARK  4 active torsions:
REMARK  status: ('A' for Active; 'I' for Inactive)
REMARK    1  A    between atoms: N_10  and  C_14 
REMARK    2  A    between atoms: C_17  and  C_18 
REMARK       I    between atoms: C_18  and  N_20 
REMARK    3  A    between atoms: C_22  and  N_23 
REMARK    4  A    between atoms: N_23  and  C_24 
ROOT
HETATM    1  C   UNL     1       7.932  11.221  23.765  0.00  0.00     0.041 C 
HETATM    2  C   UNL     1       7.878   9.827  23.746  0.00  0.00     0.031 C 
HETATM    3  C   UNL     1       6.671   9.153  23.953  0.00  0.00     0.022 C 
HETATM    4  C   UNL     1       5.494   9.868  24.191  0.00  0.00     0.058 C 
HETATM    5  C   UNL     1       6.774  11.912  24.178  0.00  0.00     0.060 C 
HETATM    6  C   UNL     1       5.531  11.276  24.312  0.00  0.00     0.046 C 
ENDROOT
BRANCH   1   7
HETATM    7  N   UNL     1       9.076  11.965  23.288  0.00  0.00    -0.324 N 
HETATM    8  C   UNL     1       9.715  13.077  23.842  0.00  0.00     0.031 C 
HETATM    9  C   UNL     1       9.398  13.771  25.135  0.00  0.00     0.067 C 
HETATM   10  C   UNL     1      10.770  13.448  23.017  0.00  0.00     0.040 C 
HETATM   11  C   UNL     1      10.536  14.729  25.594  0.00  0.00    -0.036 C 
HETATM   12  C   UNL     1      11.087  15.536  24.399  0.00  0.00     0.093 C 
HETATM   13  C   UNL     1      11.677  13.938  26.271  0.00  0.00     0.015 C 
HETATM   14  C   UNL     1       9.956  15.705  26.635  0.00  0.00     0.015 C 
HETATM   15  C   UNL     1      11.578  14.634  23.276  0.00  0.00     0.162 C 
HETATM   16  O   UNL     1      12.558  14.935  22.597  0.00  0.00    -0.292 OA
HETATM   17  C   UNL     1      10.914  12.457  22.025  0.00  0.00    -0.030 C 
HETATM   18  C   UNL     1       9.851  11.596  22.193  0.00  0.00     0.105 C 
HETATM   19  C   UNL     1      12.007  12.343  21.027  0.00  0.00     0.050 C 
ENDBRANCH   1   7
BRANCH   6  20
HETATM   20  N   UNL     1       4.363  11.980  24.584  0.00  0.00    -0.384 N 
HETATM   21  H   UNL     1       3.967  11.655  25.477  0.00  0.00     0.160 HD
BRANCH  20  22
HETATM   22  C   UNL     1       3.412  12.524  23.624  0.00  0.00     0.082 C 
HETATM   23  C   UNL     1       4.176  13.193  22.472  0.00  0.00     0.032 C 
HETATM   24  C   UNL     1       5.006  14.391  22.933  0.00  0.00     0.080 C 
HETATM   25  C   UNL     1       4.193  15.337  23.790  0.00  0.00     0.127 C 
HETATM   26  C   UNL     1       3.346  14.728  24.881  0.00  0.00     0.080 C 
HETATM   27  O   UNL     1       4.302  16.558  23.676  0.00  0.00    -0.298 OA
HETATM   28  C   UNL     1       2.527  13.574  24.315  0.00  0.00     0.032 C 
ENDBRANCH  20  22
ENDBRANCH   6  20
BRANCH   4  29
HETATM   29  C   UNL     1       4.193   9.137  24.240  0.00  0.00     0.251 C 
HETATM   30  O   UNL     1       3.384   9.311  25.142  0.00  0.00    -0.268 OA
HETATM   31  N   UNL     1       3.920   8.257  23.224  0.00  0.00    -0.366 N 
HETATM   32  H   UNL     1       4.614   7.935  22.565  0.00  0.00     0.159 HD
HETATM   33  H   UNL     1       3.065   7.720  23.307  0.00  0.00     0.159 HD
ENDBRANCH   4  29
TORSDOF 4
ENDMDL
