MODEL 1
REMARK VINA RESULT:    -9.044      0.000      0.000
REMARK INTER + INTRA:         -14.188
REMARK INTER:                 -12.499
REMARK INTRA:                  -1.689
REMARK UNBOUND:                -1.971
REMARK  7 active torsions:
REMARK  status: ('A' for Active; 'I' for Inactive)
REMARK    1  A    between atoms: C_7  and  N_8 
REMARK    2  A    between atoms: C_14  and  C_15 
REMARK    3  A    between atoms: C_16  and  O_17 
REMARK    4  A    between atoms: C_19  and  O_20 
REMARK    5  A    between atoms: C_22  and  C_23 
REMARK       I    between atoms: C_23  and  N_25 
REMARK    6  A    between atoms: N_25  and  C_27 
REMARK    7  A    between atoms: C_27  and  C_28 
ROOT
HETATM    1  C   UNL     1       9.101  11.513  24.112  0.00  0.00     0.046 A 
HETATM    2  C   UNL     1       9.673  10.288  23.782  0.00  0.00     0.082 A 
HETATM    3  C   UNL     1       8.993   9.413  22.929  0.00  0.00     0.075 A 
HETATM    4  C   UNL     1       7.735   9.749  22.401  0.00  0.00     0.084 A 
HETATM    5  C   UNL     1       7.797  11.812  23.621  0.00  0.00     0.038 A 
HETATM    6  C   UNL     1       7.106  10.970  22.728  0.00  0.00     0.066 A 
ENDROOT
BRANCH   1   7
HETATM    7  C   UNL     1       9.716  12.555  24.973  0.00  0.00     0.172 A 
HETATM    8  N   UNL     1       9.336  13.874  25.107  0.00  0.00    -0.244 N 
HETATM    9  C   UNL     1      10.221  14.419  26.014  0.00  0.00     0.349 A 
HETATM   10  O   UNL     1      10.261  15.546  26.487  0.00  0.00    -0.245 OA
HETATM   11  N   UNL     1      11.099  13.394  26.347  0.00  0.00    -0.226 N 
HETATM   12  H   UNL     1      11.845  13.459  27.015  0.00  0.00     0.194 HD
HETATM   13  N   UNL     1      10.760  12.247  25.700  0.00  0.00    -0.151 NA
BRANCH   8  14
HETATM   14  C   UNL     1       8.308  14.660  24.542  0.00  0.00     0.051 A 
HETATM   15  C   UNL     1       8.314  15.151  23.228  0.00  0.00    -0.035 A 
HETATM   16  C   UNL     1       9.365  14.772  22.223  0.00  0.00     0.050 C 
HETATM   17  C   UNL     1       7.196  15.887  22.769  0.00  0.00     0.009 A 
HETATM   18  C   UNL     1       6.074  16.081  23.577  0.00  0.00     0.001 A 
HETATM   19  C   UNL     1       6.043  15.535  24.855  0.00  0.00     0.002 A 
HETATM   20  C   UNL     1       7.146  14.832  25.327  0.00  0.00     0.031 A 
ENDBRANCH   8  14
ENDBRANCH   1   7
BRANCH   2  21
HETATM   21  O   UNL     1      10.857   9.809  24.261  0.00  0.00    -0.360 OA
HETATM   22  H   UNL     1      10.763   9.535  25.187  0.00  0.00     0.217 HD
ENDBRANCH   2  21
BRANCH   6  23
HETATM   23  C   UNL     1       5.913  11.465  21.924  0.00  0.00     0.256 C 
HETATM   24  O   UNL     1       6.157  12.220  20.978  0.00  0.00    -0.267 OA
HETATM   25  N   UNL     1       4.573  11.216  22.287  0.00  0.00    -0.348 N 
HETATM   26  C   UNL     1       4.126  10.142  23.154  0.00  0.00     0.153 C 
BRANCH  25  27
HETATM   27  C   UNL     1       3.505  12.078  21.721  0.00  0.00     0.164 C 
BRANCH  27  28
HETATM   28  C   UNL     1       2.839  12.981  22.753  0.00  0.00    -0.034 A 
HETATM   29  C   UNL     1       3.539  13.200  23.957  0.00  0.00     0.009 A 
HETATM   30  C   UNL     1       3.033  14.017  24.965  0.00  0.00     0.001 A 
HETATM   31  C   UNL     1       1.811  14.651  24.792  0.00  0.00     0.001 A 
HETATM   32  C   UNL     1       1.112  14.479  23.603  0.00  0.00     0.007 A 
HETATM   33  C   UNL     1       1.602  13.648  22.572  0.00  0.00    -0.054 A 
HETATM   34  C   UNL     1       0.792  13.587  21.305  0.00  0.00     0.049 C 
ENDBRANCH  27  28
ENDBRANCH  25  27
ENDBRANCH   6  23
BRANCH   4  35
HETATM   35  O   UNL     1       7.138   8.834  21.576  0.00  0.00    -0.360 OA
HETATM   36  H   UNL     1       6.511   9.284  20.982  0.00  0.00     0.217 HD
ENDBRANCH   4  35
TORSDOF 7
ENDMDL
MODEL 2
REMARK VINA RESULT:    -8.950      0.959      1.678
REMARK INTER + INTRA:         -14.061
REMARK INTER:                 -11.448
REMARK INTRA:                  -2.613
REMARK UNBOUND:                -1.971
REMARK  7 active torsions:
REMARK  status: ('A' for Active; 'I' for Inactive)
REMARK    1  A    between atoms: C_7  and  N_8 
REMARK    2  A    between atoms: C_14  and  C_15 
REMARK    3  A    between atoms: C_16  and  O_17 
REMARK    4  A    between atoms: C_19  and  O_20 
REMARK    5  A    between atoms: C_22  and  C_23 
REMARK       I    between atoms: C_23  and  N_25 
REMARK    6  A    between atoms: N_25  and  C_27 
REMARK    7  A    between atoms: C_27  and  C_28 
ROOT
HETATM    1  C   UNL     1       9.404  11.279  24.243  0.00  0.00     0.046 A 
HETATM    2  C   UNL     1      10.124  10.162  23.833  0.00  0.00     0.082 A 
HETATM    3  C   UNL     1       9.522   9.217  22.996  0.00  0.00     0.075 A 
HETATM    4  C   UNL     1       8.194   9.376  22.564  0.00  0.00     0.084 A 
HETATM    5  C   UNL     1       8.039  11.393  23.850  0.00  0.00     0.038 A 
HETATM    6  C   UNL     1       7.417  10.482  22.975  0.00  0.00     0.066 A 
ENDROOT
BRANCH   1   7
HETATM    7  C   UNL     1       9.919  12.378  25.100  0.00  0.00     0.172 A 
HETATM    8  N   UNL     1       9.862  13.735  24.859  0.00  0.00    -0.244 N 
HETATM    9  C   UNL     1      10.478  14.325  25.943  0.00  0.00     0.349 A 
HETATM   10  O   UNL     1      10.633  15.508  26.206  0.00  0.00    -0.245 OA
HETATM   11  N   UNL     1      10.894  13.277  26.756  0.00  0.00    -0.226 N 
HETATM   12  H   UNL     1      11.349  13.373  27.645  0.00  0.00     0.194 HD
HETATM   13  N   UNL     1      10.527  12.082  26.220  0.00  0.00    -0.151 NA
BRANCH   8  14
HETATM   14  C   UNL     1       9.331  14.524  23.815  0.00  0.00     0.051 A 
HETATM   15  C   UNL     1       8.063  15.124  23.837  0.00  0.00    -0.035 A 
HETATM   16  C   UNL     1       7.175  15.104  25.051  0.00  0.00     0.050 C 
HETATM   17  C   UNL     1       7.671  15.932  22.745  0.00  0.00     0.009 A 
HETATM   18  C   UNL     1       8.539  16.186  21.682  0.00  0.00     0.001 A 
HETATM   19  C   UNL     1       9.820  15.646  21.695  0.00  0.00     0.002 A 
HETATM   20  C   UNL     1      10.208  14.828  22.751  0.00  0.00     0.031 A 
ENDBRANCH   8  14
ENDBRANCH   1   7
BRANCH   2  21
HETATM   21  O   UNL     1      11.396   9.851  24.216  0.00  0.00    -0.360 OA
HETATM   22  H   UNL     1      11.928   9.591  23.448  0.00  0.00     0.217 HD
ENDBRANCH   2  21
BRANCH   6  23
HETATM   23  C   UNL     1       6.112  10.815  22.268  0.00  0.00     0.256 C 
HETATM   24  O   UNL     1       6.180  11.044  21.057  0.00  0.00    -0.267 OA
HETATM   25  N   UNL     1       4.888  11.003  22.944  0.00  0.00    -0.348 N 
HETATM   26  C   UNL     1       4.576  10.495  24.266  0.00  0.00     0.153 C 
BRANCH  25  27
HETATM   27  C   UNL     1       3.796  11.737  22.257  0.00  0.00     0.164 C 
BRANCH  27  28
HETATM   28  C   UNL     1       3.432  13.057  22.929  0.00  0.00    -0.034 A 
HETATM   29  C   UNL     1       4.417  14.065  22.929  0.00  0.00     0.009 A 
HETATM   30  C   UNL     1       4.191  15.315  23.501  0.00  0.00     0.001 A 
HETATM   31  C   UNL     1       2.962  15.597  24.081  0.00  0.00     0.001 A 
HETATM   32  C   UNL     1       1.961  14.634  24.068  0.00  0.00     0.007 A 
HETATM   33  C   UNL     1       2.172  13.357  23.502  0.00  0.00    -0.054 A 
HETATM   34  C   UNL     1       0.997  12.417  23.488  0.00  0.00     0.049 C 
ENDBRANCH  27  28
ENDBRANCH  25  27
ENDBRANCH   6  23
BRANCH   4  35
HETATM   35  O   UNL     1       7.681   8.405  21.747  0.00  0.00    -0.360 OA
HETATM   36  H   UNL     1       8.404   7.959  21.268  0.00  0.00     0.217 HD
ENDBRANCH   4  35
TORSDOF 7
ENDMDL
MODEL 3
REMARK VINA RESULT:    -8.949      2.024      3.412
REMARK INTER + INTRA:         -14.059
REMARK INTER:                 -11.622
REMARK INTRA:                  -2.436
REMARK UNBOUND:                -1.971
REMARK  7 active torsions:
REMARK  status: ('A' for Active; 'I' for Inactive)
REMARK    1  A    between atoms: C_7  and  N_8 
REMARK    2  A    between atoms: C_14  and  C_15 
REMARK    3  A    between atoms: C_16  and  O_17 
REMARK    4  A    between atoms: C_19  and  O_20 
REMARK    5  A    between atoms: C_22  and  C_23 
REMARK       I    between atoms: C_23  and  N_25 
REMARK    6  A    between atoms: N_25  and  C_27 
REMARK    7  A    between atoms: C_27  and  C_28 
ROOT
HETATM    1  C   UNL     1       7.688   9.133  22.291  0.00  0.00     0.046 A 
HETATM    2  C   UNL     1       7.507   7.918  21.637  0.00  0.00     0.082 A 
HETATM    3  C   UNL     1       6.302   7.656  20.979  0.00  0.00     0.075 A 
HETATM    4  C   UNL     1       5.262   8.602  20.971  0.00  0.00     0.084 A 
HETATM    5  C   UNL     1       6.601  10.055  22.329  0.00  0.00     0.038 A 
HETATM    6  C   UNL     1       5.391   9.838  21.641  0.00  0.00     0.066 A 
ENDROOT
BRANCH   1   7
HETATM    7  C   UNL     1       8.920   9.565  22.999  0.00  0.00     0.172 A 
HETATM    8  N   UNL     1       9.525  10.803  22.965  0.00  0.00    -0.244 N 
HETATM    9  C   UNL     1      10.632  10.692  23.779  0.00  0.00     0.349 A 
HETATM   10  O   UNL     1      11.455  11.537  24.100  0.00  0.00    -0.245 OA
HETATM   11  N   UNL     1      10.637   9.377  24.231  0.00  0.00    -0.226 N 
HETATM   12  H   UNL     1      11.300   8.984  24.872  0.00  0.00     0.194 HD
HETATM   13  N   UNL     1       9.562   8.701  23.744  0.00  0.00    -0.151 NA
BRANCH   8  14
HETATM   14  C   UNL     1       9.227  12.023  22.317  0.00  0.00     0.051 A 
HETATM   15  C   UNL     1       8.689  13.151  22.955  0.00  0.00    -0.035 A 
HETATM   16  C   UNL     1       8.499  13.230  24.445  0.00  0.00     0.050 C 
HETATM   17  C   UNL     1       8.483  14.329  22.199  0.00  0.00     0.009 A 
HETATM   18  C   UNL     1       8.855  14.403  20.856  0.00  0.00     0.001 A 
HETATM   19  C   UNL     1       9.450  13.306  20.245  0.00  0.00     0.002 A 
HETATM   20  C   UNL     1       9.634  12.133  20.970  0.00  0.00     0.031 A 
ENDBRANCH   8  14
ENDBRANCH   1   7
BRANCH   2  21
HETATM   21  O   UNL     1       8.404   6.890  21.609  0.00  0.00    -0.360 OA
HETATM   22  H   UNL     1       8.006   6.103  21.206  0.00  0.00     0.217 HD
ENDBRANCH   2  21
BRANCH   6  23
HETATM   23  C   UNL     1       4.410  10.969  21.372  0.00  0.00     0.256 C 
HETATM   24  O   UNL     1       4.418  11.450  20.235  0.00  0.00    -0.267 OA
HETATM   25  N   UNL     1       3.616  11.565  22.374  0.00  0.00    -0.348 N 
HETATM   26  C   UNL     1       3.271  10.953  23.643  0.00  0.00     0.153 C 
BRANCH  25  27
HETATM   27  C   UNL     1       3.038  12.909  22.125  0.00  0.00     0.164 C 
BRANCH  27  28
HETATM   28  C   UNL     1       3.627  14.001  23.011  0.00  0.00    -0.034 A 
HETATM   29  C   UNL     1       4.950  14.403  22.733  0.00  0.00     0.009 A 
HETATM   30  C   UNL     1       5.586  15.401  23.468  0.00  0.00     0.001 A 
HETATM   31  C   UNL     1       4.909  16.038  24.498  0.00  0.00     0.001 A 
HETATM   32  C   UNL     1       3.593  15.685  24.775  0.00  0.00     0.007 A 
HETATM   33  C   UNL     1       2.933  14.669  24.049  0.00  0.00    -0.054 A 
HETATM   34  C   UNL     1       1.490  14.416  24.394  0.00  0.00     0.049 C 
ENDBRANCH  27  28
ENDBRANCH  25  27
ENDBRANCH   6  23
BRANCH   4  35
HETATM   35  O   UNL     1       4.115   8.264  20.305  0.00  0.00    -0.360 OA
HETATM   36  H   UNL     1       3.832   7.368  20.566  0.00  0.00     0.217 HD
ENDBRANCH   4  35
TORSDOF 7
ENDMDL
MODEL 4
REMARK VINA RESULT:    -8.849      2.272      3.672
REMARK INTER + INTRA:         -13.924
REMARK INTER:                 -12.242
REMARK INTRA:                  -1.682
REMARK UNBOUND:                -1.971
REMARK  7 active torsions:
REMARK  status: ('A' for Active; 'I' for Inactive)
REMARK    1  A    between atoms: C_7  and  N_8 
REMARK    2  A    between atoms: C_14  and  C_15 
REMARK    3  A    between atoms: C_16  and  O_17 
REMARK    4  A    between atoms: C_19  and  O_20 
REMARK    5  A    between atoms: C_22  and  C_23 
REMARK       I    between atoms: C_23  and  N_25 
REMARK    6  A    between atoms: N_25  and  C_27 
REMARK    7  A    between atoms: C_27  and  C_28 
ROOT
HETATM    1  C   UNL     1       9.288  11.708  24.423  0.00  0.00     0.046 A 
HETATM    2  C   UNL     1      10.085  10.645  24.010  0.00  0.00     0.082 A 
HETATM    3  C   UNL     1       9.555   9.672  23.158  0.00  0.00     0.075 A 
HETATM    4  C   UNL     1       8.224   9.747  22.713  0.00  0.00     0.084 A 
HETATM    5  C   UNL     1       7.922  11.736  24.017  0.00  0.00     0.038 A 
HETATM    6  C   UNL     1       7.372  10.794  23.126  0.00  0.00     0.066 A 
ENDROOT
BRANCH   1   7
HETATM    7  C   UNL     1       9.721  12.831  25.295  0.00  0.00     0.172 A 
HETATM    8  N   UNL     1       9.212  14.111  25.339  0.00  0.00    -0.244 N 
HETATM    9  C   UNL     1       9.952  14.766  26.301  0.00  0.00     0.349 A 
HETATM   10  O   UNL     1       9.844  15.906  26.730  0.00  0.00    -0.245 OA
HETATM   11  N   UNL     1      10.882  13.839  26.757  0.00  0.00    -0.226 N 
HETATM   12  H   UNL     1      11.551  13.995  27.488  0.00  0.00     0.194 HD
HETATM   13  N   UNL     1      10.713  12.645  26.128  0.00  0.00    -0.151 NA
BRANCH   8  14
HETATM   14  C   UNL     1       8.176  14.779  24.649  0.00  0.00     0.051 A 
HETATM   15  C   UNL     1       8.245  15.177  23.305  0.00  0.00    -0.035 A 
HETATM   16  C   UNL     1       9.390  14.806  22.404  0.00  0.00     0.050 C 
HETATM   17  C   UNL     1       7.115  15.795  22.718  0.00  0.00     0.009 A 
HETATM   18  C   UNL     1       5.928  15.963  23.432  0.00  0.00     0.001 A 
HETATM   19  C   UNL     1       5.841  15.506  24.741  0.00  0.00     0.002 A 
HETATM   20  C   UNL     1       6.952  14.921  25.338  0.00  0.00     0.031 A 
ENDBRANCH   8  14
ENDBRANCH   1   7
BRANCH   2  21
HETATM   21  O   UNL     1      11.371  10.416  24.403  0.00  0.00    -0.360 OA
HETATM   22  H   UNL     1      11.414   9.648  24.994  0.00  0.00     0.217 HD
ENDBRANCH   2  21
BRANCH   6  23
HETATM   23  C   UNL     1       6.054  11.047  22.410  0.00  0.00     0.256 C 
HETATM   24  O   UNL     1       5.026  10.720  23.010  0.00  0.00    -0.267 OA
HETATM   25  N   UNL     1       5.967  11.495  21.075  0.00  0.00    -0.348 N 
HETATM   26  C   UNL     1       7.019  12.188  20.355  0.00  0.00     0.153 C 
BRANCH  25  27
HETATM   27  C   UNL     1       4.697  11.295  20.333  0.00  0.00     0.164 C 
BRANCH  27  28
HETATM   28  C   UNL     1       4.831  10.359  19.137  0.00  0.00    -0.034 A 
HETATM   29  C   UNL     1       5.458   9.118  19.365  0.00  0.00     0.009 A 
HETATM   30  C   UNL     1       5.623   8.178  18.349  0.00  0.00     0.001 A 
HETATM   31  C   UNL     1       5.150   8.450  17.074  0.00  0.00     0.001 A 
HETATM   32  C   UNL     1       4.499   9.653  16.826  0.00  0.00     0.007 A 
HETATM   33  C   UNL     1       4.330  10.623  17.838  0.00  0.00    -0.054 A 
HETATM   34  C   UNL     1       3.555  11.860  17.472  0.00  0.00     0.049 C 
ENDBRANCH  27  28
ENDBRANCH  25  27
ENDBRANCH   6  23
BRANCH   4  35
HETATM   35  O   UNL     1       7.785   8.752  21.882  0.00  0.00    -0.360 OA
HETATM   36  H   UNL     1       8.452   8.578  21.193  0.00  0.00     0.217 HD
ENDBRANCH   4  35
TORSDOF 7
ENDMDL
MODEL 5
REMARK VINA RESULT:    -8.707      3.604      5.991
REMARK INTER + INTRA:         -13.733
REMARK INTER:                 -12.000
REMARK INTRA:                  -1.733
REMARK UNBOUND:                -1.971
REMARK  7 active torsions:
REMARK  status: ('A' for Active; 'I' for Inactive)
REMARK    1  A    between atoms: C_7  and  N_8 
REMARK    2  A    between atoms: C_14  and  C_15 
REMARK    3  A    between atoms: C_16  and  O_17 
REMARK    4  A    between atoms: C_19  and  O_20 
REMARK    5  A    between atoms: C_22  and  C_23 
REMARK       I    between atoms: C_23  and  N_25 
REMARK    6  A    between atoms: N_25  and  C_27 
REMARK    7  A    between atoms: C_27  and  C_28 
ROOT
HETATM    1  C   UNL     1       7.267  13.833  21.904  0.00  0.00     0.046 A 
HETATM    2  C   UNL     1       6.168  14.284  22.628  0.00  0.00     0.082 A 
HETATM    3  C   UNL     1       4.941  13.624  22.510  0.00  0.00     0.075 A 
HETATM    4  C   UNL     1       4.797  12.510  21.666  0.00  0.00     0.084 A 
HETATM    5  C   UNL     1       7.090  12.743  21.003  0.00  0.00     0.038 A 
HETATM    6  C   UNL     1       5.879  12.031  20.894  0.00  0.00     0.066 A 
ENDROOT
BRANCH   1   7
HETATM    7  C   UNL     1       8.636  14.408  21.953  0.00  0.00     0.172 A 
HETATM    8  N   UNL     1       9.804  13.779  22.326  0.00  0.00    -0.244 N 
HETATM    9  C   UNL     1      10.790  14.736  22.207  0.00  0.00     0.349 A 
HETATM   10  O   UNL     1      11.996  14.644  22.383  0.00  0.00    -0.245 OA
HETATM   11  N   UNL     1      10.141  15.895  21.795  0.00  0.00    -0.226 N 
HETATM   12  H   UNL     1      10.586  16.769  21.584  0.00  0.00     0.194 HD
HETATM   13  N   UNL     1       8.810  15.665  21.633  0.00  0.00    -0.151 NA
BRANCH   8  14
HETATM   14  C   UNL     1      10.120  12.469  22.751  0.00  0.00     0.051 A 
HETATM   15  C   UNL     1       9.778  11.936  24.003  0.00  0.00    -0.035 A 
HETATM   16  C   UNL     1       8.906  12.664  24.987  0.00  0.00     0.050 C 
HETATM   17  C   UNL     1      10.112  10.590  24.286  0.00  0.00     0.009 A 
HETATM   18  C   UNL     1      10.720   9.777  23.328  0.00  0.00     0.001 A 
HETATM   19  C   UNL     1      10.995  10.288  22.065  0.00  0.00     0.002 A 
HETATM   20  C   UNL     1      10.696  11.617  21.783  0.00  0.00     0.031 A 
ENDBRANCH   8  14
ENDBRANCH   1   7
BRANCH   2  21
HETATM   21  O   UNL     1       6.146  15.381  23.439  0.00  0.00    -0.360 OA
HETATM   22  H   UNL     1       6.949  15.417  23.982  0.00  0.00     0.217 HD
ENDBRANCH   2  21
BRANCH   6  23
HETATM   23  C   UNL     1       5.813  10.662  20.236  0.00  0.00     0.256 C 
HETATM   24  O   UNL     1       6.342   9.728  20.846  0.00  0.00    -0.267 OA
HETATM   25  N   UNL     1       5.310  10.447  18.935  0.00  0.00    -0.348 N 
HETATM   26  C   UNL     1       4.410  11.338  18.229  0.00  0.00     0.153 C 
BRANCH  25  27
HETATM   27  C   UNL     1       5.679   9.199  18.222  0.00  0.00     0.164 C 
BRANCH  27  28
HETATM   28  C   UNL     1       4.487   8.307  17.896  0.00  0.00    -0.034 A 
HETATM   29  C   UNL     1       3.922   8.440  16.611  0.00  0.00     0.009 A 
HETATM   30  C   UNL     1       2.838   7.667  16.200  0.00  0.00     0.001 A 
HETATM   31  C   UNL     1       2.294   6.726  17.061  0.00  0.00     0.001 A 
HETATM   32  C   UNL     1       2.850   6.549  18.323  0.00  0.00     0.007 A 
HETATM   33  C   UNL     1       3.942   7.329  18.764  0.00  0.00    -0.054 A 
HETATM   34  C   UNL     1       4.501   7.008  20.124  0.00  0.00     0.049 C 
ENDBRANCH  27  28
ENDBRANCH  25  27
ENDBRANCH   6  23
BRANCH   4  35
HETATM   35  O   UNL     1       3.562  11.924  21.608  0.00  0.00    -0.360 OA
HETATM   36  H   UNL     1       3.263  11.871  20.681  0.00  0.00     0.217 HD
ENDBRANCH   4  35
TORSDOF 7
ENDMDL
MODEL 6
REMARK VINA RESULT:    -8.555      1.841      2.499
REMARK INTER + INTRA:         -13.527
REMARK INTER:                 -11.312
REMARK INTRA:                  -2.215
REMARK UNBOUND:                -1.971
REMARK  7 active torsions:
REMARK  status: ('A' for Active; 'I' for Inactive)
REMARK    1  A    between atoms: C_7  and  N_8 
REMARK    2  A    between atoms: C_14  and  C_15 
REMARK    3  A    between atoms: C_16  and  O_17 
REMARK    4  A    between atoms: C_19  and  O_20 
REMARK    5  A    between atoms: C_22  and  C_23 
REMARK       I    between atoms: C_23  and  N_25 
REMARK    6  A    between atoms: N_25  and  C_27 
REMARK    7  A    between atoms: C_27  and  C_28 
ROOT
HETATM    1  C   UNL     1       9.424  10.872  23.073  0.00  0.00     0.046 A 
HETATM    2  C   UNL     1      10.002   9.718  23.592  0.00  0.00     0.082 A 
HETATM    3  C   UNL     1       9.190   8.643  23.965  0.00  0.00     0.075 A 
HETATM    4  C   UNL     1       7.793   8.710  23.830  0.00  0.00     0.084 A 
HETATM    5  C   UNL     1       8.002  10.951  23.003  0.00  0.00     0.038 A 
HETATM    6  C   UNL     1       7.161   9.871  23.331  0.00  0.00     0.066 A 
ENDROOT
BRANCH   1   7
HETATM    7  C   UNL     1      10.157  12.076  22.603  0.00  0.00     0.172 A 
HETATM    8  N   UNL     1       9.817  13.399  22.791  0.00  0.00    -0.244 N 
HETATM    9  C   UNL     1      10.808  14.124  22.162  0.00  0.00     0.349 A 
HETATM   10  O   UNL     1      10.969  15.334  22.094  0.00  0.00    -0.245 OA
HETATM   11  N   UNL     1      11.670  13.183  21.610  0.00  0.00    -0.226 N 
HETATM   12  H   UNL     1      12.516  13.389  21.112  0.00  0.00     0.194 HD
HETATM   13  N   UNL     1      11.253  11.923  21.905  0.00  0.00    -0.151 NA
BRANCH   8  14
HETATM   14  C   UNL     1       8.753  14.055  23.449  0.00  0.00     0.051 A 
HETATM   15  C   UNL     1       8.602  14.122  24.843  0.00  0.00    -0.035 A 
HETATM   16  C   UNL     1       9.644  13.615  25.800  0.00  0.00     0.050 C 
HETATM   17  C   UNL     1       7.515  14.854  25.376  0.00  0.00     0.009 A 
HETATM   18  C   UNL     1       6.632  15.549  24.548  0.00  0.00     0.001 A 
HETATM   19  C   UNL     1       6.825  15.538  23.172  0.00  0.00     0.002 A 
HETATM   20  C   UNL     1       7.874  14.800  22.633  0.00  0.00     0.031 A 
ENDBRANCH   8  14
ENDBRANCH   1   7
BRANCH   2  21
HETATM   21  O   UNL     1      11.333   9.534  23.830  0.00  0.00    -0.360 OA
HETATM   22  H   UNL     1      11.562   8.593  23.767  0.00  0.00     0.217 HD
ENDBRANCH   2  21
BRANCH   6  23
HETATM   23  C   UNL     1       5.704   9.830  22.895  0.00  0.00     0.256 C 
HETATM   24  O   UNL     1       5.483   9.463  21.737  0.00  0.00    -0.267 OA
HETATM   25  N   UNL     1       4.641  10.311  23.687  0.00  0.00    -0.348 N 
HETATM   26  C   UNL     1       4.682  10.484  25.126  0.00  0.00     0.153 C 
BRANCH  25  27
HETATM   27  C   UNL     1       3.349  10.634  23.032  0.00  0.00     0.164 C 
BRANCH  27  28
HETATM   28  C   UNL     1       2.979  12.111  23.109  0.00  0.00    -0.034 A 
HETATM   29  C   UNL     1       1.817  12.441  23.837  0.00  0.00     0.009 A 
HETATM   30  C   UNL     1       1.391  13.759  23.986  0.00  0.00     0.001 A 
HETATM   31  C   UNL     1       2.125  14.790  23.419  0.00  0.00     0.001 A 
HETATM   32  C   UNL     1       3.291  14.499  22.722  0.00  0.00     0.007 A 
HETATM   33  C   UNL     1       3.736  13.170  22.550  0.00  0.00    -0.054 A 
HETATM   34  C   UNL     1       5.045  12.978  21.832  0.00  0.00     0.049 C 
ENDBRANCH  27  28
ENDBRANCH  25  27
ENDBRANCH   6  23
BRANCH   4  35
HETATM   35  O   UNL     1       7.073   7.614  24.221  0.00  0.00    -0.360 OA
HETATM   36  H   UNL     1       7.410   6.818  23.770  0.00  0.00     0.217 HD
ENDBRANCH   4  35
TORSDOF 7
ENDMDL
MODEL 7
REMARK VINA RESULT:    -8.539      2.283      3.978
REMARK INTER + INTRA:         -13.506
REMARK INTER:                 -10.812
REMARK INTRA:                  -2.694
REMARK UNBOUND:                -1.971
REMARK  7 active torsions:
REMARK  status: ('A' for Active; 'I' for Inactive)
REMARK    1  A    between atoms: C_7  and  N_8 
REMARK    2  A    between atoms: C_14  and  C_15 
REMARK    3  A    between atoms: C_16  and  O_17 
REMARK    4  A    between atoms: C_19  and  O_20 
REMARK    5  A    between atoms: C_22  and  C_23 
REMARK       I    between atoms: C_23  and  N_25 
REMARK    6  A    between atoms: N_25  and  C_27 
REMARK    7  A    between atoms: C_27  and  C_28 
ROOT
HETATM    1  C   UNL     1       8.342  13.157  22.474  0.00  0.00     0.046 A 
HETATM    2  C   UNL     1       8.877  13.613  21.273  0.00  0.00     0.082 A 
HETATM    3  C   UNL     1       8.571  12.950  20.081  0.00  0.00     0.075 A 
HETATM    4  C   UNL     1       7.734  11.821  20.075  0.00  0.00     0.084 A 
HETATM    5  C   UNL     1       7.548  11.973  22.461  0.00  0.00     0.038 A 
HETATM    6  C   UNL     1       7.188  11.308  21.273  0.00  0.00     0.066 A 
ENDROOT
BRANCH   1   7
HETATM    7  C   UNL     1       8.548  13.776  23.808  0.00  0.00     0.172 A 
HETATM    8  N   UNL     1       7.604  14.368  24.620  0.00  0.00    -0.244 N 
HETATM    9  C   UNL     1       8.294  14.789  25.737  0.00  0.00     0.349 A 
HETATM   10  O   UNL     1       7.883  15.328  26.754  0.00  0.00    -0.245 OA
HETATM   11  N   UNL     1       9.623  14.446  25.511  0.00  0.00    -0.226 N 
HETATM   12  H   UNL     1      10.379  14.587  26.154  0.00  0.00     0.194 HD
HETATM   13  N   UNL     1       9.754  13.810  24.316  0.00  0.00    -0.151 NA
BRANCH   8  14
HETATM   14  C   UNL     1       6.212  14.581  24.511  0.00  0.00     0.051 A 
HETATM   15  C   UNL     1       5.233  13.660  24.915  0.00  0.00    -0.035 A 
HETATM   16  C   UNL     1       5.565  12.387  25.644  0.00  0.00     0.050 C 
HETATM   17  C   UNL     1       3.870  14.017  24.797  0.00  0.00     0.009 A 
HETATM   18  C   UNL     1       3.488  15.280  24.342  0.00  0.00     0.001 A 
HETATM   19  C   UNL     1       4.460  16.215  24.008  0.00  0.00     0.002 A 
HETATM   20  C   UNL     1       5.804  15.867  24.095  0.00  0.00     0.031 A 
ENDBRANCH   8  14
ENDBRANCH   1   7
BRANCH   2  21
HETATM   21  O   UNL     1       9.744  14.657  21.135  0.00  0.00    -0.360 OA
HETATM   22  H   UNL     1       9.506  15.197  20.365  0.00  0.00     0.217 HD
ENDBRANCH   2  21
BRANCH   6  23
HETATM   23  C   UNL     1       6.050  10.299  21.234  0.00  0.00     0.256 C 
HETATM   24  O   UNL     1       4.979  10.691  20.762  0.00  0.00    -0.267 OA
HETATM   25  N   UNL     1       6.124   9.020  21.822  0.00  0.00    -0.348 N 
HETATM   26  C   UNL     1       7.351   8.312  22.135  0.00  0.00     0.153 C 
BRANCH  25  27
HETATM   27  C   UNL     1       4.864   8.294  22.119  0.00  0.00     0.164 C 
BRANCH  27  28
HETATM   28  C   UNL     1       4.531   8.232  23.606  0.00  0.00    -0.034 A 
HETATM   29  C   UNL     1       5.071   7.153  24.336  0.00  0.00     0.009 A 
HETATM   30  C   UNL     1       4.844   7.003  25.703  0.00  0.00     0.001 A 
HETATM   31  C   UNL     1       4.079   7.938  26.383  0.00  0.00     0.001 A 
HETATM   32  C   UNL     1       3.559   9.029  25.696  0.00  0.00     0.007 A 
HETATM   33  C   UNL     1       3.768   9.196  24.309  0.00  0.00    -0.054 A 
HETATM   34  C   UNL     1       3.213  10.447  23.684  0.00  0.00     0.049 C 
ENDBRANCH  27  28
ENDBRANCH  25  27
ENDBRANCH   6  23
BRANCH   4  35
HETATM   35  O   UNL     1       7.488  11.231  18.865  0.00  0.00    -0.360 OA
HETATM   36  H   UNL     1       7.345  10.274  18.987  0.00  0.00     0.217 HD
ENDBRANCH   4  35
TORSDOF 7
ENDMDL
MODEL 8
REMARK VINA RESULT:    -8.502      2.428      5.788
REMARK INTER + INTRA:         -13.456
REMARK INTER:                 -10.549
REMARK INTRA:                  -2.906
REMARK UNBOUND:                -1.971
REMARK  7 active torsions:
REMARK  status: ('A' for Active; 'I' for Inactive)
REMARK    1  A    between atoms: C_7  and  N_8 
REMARK    2  A    between atoms: C_14  and  C_15 
REMARK    3  A    between atoms: C_16  and  O_17 
REMARK    4  A    between atoms: C_19  and  O_20 
REMARK    5  A    between atoms: C_22  and  C_23 
REMARK       I    between atoms: C_23  and  N_25 
REMARK    6  A    between atoms: N_25  and  C_27 
REMARK    7  A    between atoms: C_27  and  C_28 
ROOT
HETATM    1  C   UNL     1       7.171   8.493  24.105  0.00  0.00     0.046 A 
HETATM    2  C   UNL     1       8.067   7.445  23.922  0.00  0.00     0.082 A 
HETATM    3  C   UNL     1       9.429   7.717  23.757  0.00  0.00     0.075 A 
HETATM    4  C   UNL     1       9.909   9.037  23.769  0.00  0.00     0.084 A 
HETATM    5  C   UNL     1       7.664   9.830  24.051  0.00  0.00     0.038 A 
HETATM    6  C   UNL     1       9.034  10.134  23.929  0.00  0.00     0.066 A 
ENDROOT
BRANCH   1   7
HETATM    7  C   UNL     1       5.709   8.358  24.327  0.00  0.00     0.172 A 
HETATM    8  N   UNL     1       4.710   9.222  23.931  0.00  0.00    -0.244 N 
HETATM    9  C   UNL     1       3.536   8.654  24.378  0.00  0.00     0.349 A 
HETATM   10  O   UNL     1       2.381   9.026  24.230  0.00  0.00    -0.245 OA
HETATM   11  N   UNL     1       3.909   7.492  25.044  0.00  0.00    -0.226 N 
HETATM   12  H   UNL     1       3.280   6.830  25.459  0.00  0.00     0.194 HD
HETATM   13  N   UNL     1       5.258   7.323  24.989  0.00  0.00    -0.151 NA
BRANCH   8  14
HETATM   14  C   UNL     1       4.695  10.442  23.220  0.00  0.00     0.051 A 
HETATM   15  C   UNL     1       4.725  11.711  23.818  0.00  0.00    -0.035 A 
HETATM   16  C   UNL     1       4.919  11.910  25.296  0.00  0.00     0.050 C 
HETATM   17  C   UNL     1       4.755  12.857  22.988  0.00  0.00     0.009 A 
HETATM   18  C   UNL     1       4.811  12.744  21.598  0.00  0.00     0.001 A 
HETATM   19  C   UNL     1       4.851  11.485  21.011  0.00  0.00     0.002 A 
HETATM   20  C   UNL     1       4.795  10.351  21.814  0.00  0.00     0.031 A 
ENDBRANCH   8  14
ENDBRANCH   1   7
BRANCH   2  21
HETATM   21  O   UNL     1       7.738   6.124  23.833  0.00  0.00    -0.360 OA
HETATM   22  H   UNL     1       6.875   6.017  23.404  0.00  0.00     0.217 HD
ENDBRANCH   2  21
BRANCH   6  23
HETATM   23  C   UNL     1       9.578  11.517  24.254  0.00  0.00     0.256 C 
HETATM   24  O   UNL     1       9.709  11.792  25.450  0.00  0.00    -0.267 OA
HETATM   25  N   UNL     1       9.800  12.514  23.282  0.00  0.00    -0.348 N 
HETATM   26  C   UNL     1       9.981  12.274  21.863  0.00  0.00     0.153 C 
BRANCH  25  27
HETATM   27  C   UNL     1       9.903  13.929  23.717  0.00  0.00     0.164 C 
BRANCH  27  28
HETATM   28  C   UNL     1       8.558  14.642  23.799  0.00  0.00    -0.034 A 
HETATM   29  C   UNL     1       7.883  14.591  25.036  0.00  0.00     0.009 A 
HETATM   30  C   UNL     1       6.654  15.218  25.230  0.00  0.00     0.001 A 
HETATM   31  C   UNL     1       6.069  15.928  24.191  0.00  0.00     0.001 A 
HETATM   32  C   UNL     1       6.726  16.023  22.970  0.00  0.00     0.007 A 
HETATM   33  C   UNL     1       7.967  15.387  22.749  0.00  0.00    -0.054 A 
HETATM   34  C   UNL     1       8.616  15.610  21.409  0.00  0.00     0.049 C 
ENDBRANCH  27  28
ENDBRANCH  25  27
ENDBRANCH   6  23
BRANCH   4  35
HETATM   35  O   UNL     1      11.256   9.215  23.599  0.00  0.00    -0.360 OA
HETATM   36  H   UNL     1      11.739   8.451  23.965  0.00  0.00     0.217 HD
ENDBRANCH   4  35
TORSDOF 7
ENDMDL
MODEL 9
REMARK VINA RESULT:    -8.161      2.677      5.892
REMARK INTER + INTRA:         -12.995
REMARK INTER:                 -11.023
REMARK INTRA:                  -1.971
REMARK UNBOUND:                -1.971
REMARK  7 active torsions:
REMARK  status: ('A' for Active; 'I' for Inactive)
REMARK    1  A    between atoms: C_7  and  N_8 
REMARK    2  A    between atoms: C_14  and  C_15 
REMARK    3  A    between atoms: C_16  and  O_17 
REMARK    4  A    between atoms: C_19  and  O_20 
REMARK    5  A    between atoms: C_22  and  C_23 
REMARK       I    between atoms: C_23  and  N_25 
REMARK    6  A    between atoms: N_25  and  C_27 
REMARK    7  A    between atoms: C_27  and  C_28 
ROOT
HETATM    1  C   UNL     1       6.840  14.394  22.364  0.00  0.00     0.046 A 
HETATM    2  C   UNL     1       5.759  15.032  22.963  0.00  0.00     0.082 A 
HETATM    3  C   UNL     1       4.516  14.395  23.009  0.00  0.00     0.075 A 
HETATM    4  C   UNL     1       4.338  13.116  22.454  0.00  0.00     0.084 A 
HETATM    5  C   UNL     1       6.629  13.126  21.748  0.00  0.00     0.038 A 
HETATM    6  C   UNL     1       5.401  12.441  21.814  0.00  0.00     0.066 A 
ENDROOT
BRANCH   1   7
HETATM    7  C   UNL     1       8.223  14.930  22.270  0.00  0.00     0.172 A 
HETATM    8  N   UNL     1       9.407  14.256  22.484  0.00  0.00    -0.244 N 
HETATM    9  C   UNL     1      10.401  15.189  22.281  0.00  0.00     0.349 A 
HETATM   10  O   UNL     1      11.616  15.058  22.311  0.00  0.00    -0.245 OA
HETATM   11  N   UNL     1       9.746  16.379  21.984  0.00  0.00    -0.226 N 
HETATM   12  H   UNL     1      10.190  17.248  21.751  0.00  0.00     0.194 HD
HETATM   13  N   UNL     1       8.399  16.192  21.972  0.00  0.00    -0.151 NA
BRANCH   8  14
HETATM   14  C   UNL     1       9.729  12.924  22.827  0.00  0.00     0.051 A 
HETATM   15  C   UNL     1      10.078  11.927  21.902  0.00  0.00    -0.035 A 
HETATM   16  C   UNL     1      10.284  12.210  20.440  0.00  0.00     0.050 C 
HETATM   17  C   UNL     1      10.427  10.643  22.383  0.00  0.00     0.009 A 
HETATM   18  C   UNL     1      10.483  10.371  23.750  0.00  0.00     0.001 A 
HETATM   19  C   UNL     1      10.203  11.379  24.665  0.00  0.00     0.002 A 
HETATM   20  C   UNL     1       9.833  12.639  24.206  0.00  0.00     0.031 A 
ENDBRANCH   8  14
ENDBRANCH   1   7
BRANCH   2  21
HETATM   21  O   UNL     1       5.771  16.290  23.491  0.00  0.00    -0.360 OA
HETATM   22  H   UNL     1       5.456  16.277  24.408  0.00  0.00     0.217 HD
ENDBRANCH   2  21
BRANCH   6  23
HETATM   23  C   UNL     1       5.295  10.956  21.500  0.00  0.00     0.256 C 
HETATM   24  O   UNL     1       4.636  10.646  20.504  0.00  0.00    -0.267 OA
HETATM   25  N   UNL     1       5.787   9.944  22.351  0.00  0.00    -0.348 N 
HETATM   26  C   UNL     1       6.810  10.125  23.363  0.00  0.00     0.153 C 
BRANCH  25  27
HETATM   27  C   UNL     1       5.267   8.562  22.196  0.00  0.00     0.164 C 
BRANCH  27  28
HETATM   28  C   UNL     1       6.288   7.484  22.541  0.00  0.00    -0.034 A 
HETATM   29  C   UNL     1       7.315   7.253  21.602  0.00  0.00     0.009 A 
HETATM   30  C   UNL     1       8.310   6.302  21.818  0.00  0.00     0.001 A 
HETATM   31  C   UNL     1       8.314   5.561  22.990  0.00  0.00     0.001 A 
HETATM   32  C   UNL     1       7.333   5.788  23.949  0.00  0.00     0.007 A 
HETATM   33  C   UNL     1       6.310   6.740  23.746  0.00  0.00    -0.054 A 
HETATM   34  C   UNL     1       5.339   6.946  24.878  0.00  0.00     0.049 C 
ENDBRANCH  27  28
ENDBRANCH  25  27
ENDBRANCH   6  23
BRANCH   4  35
HETATM   35  O   UNL     1       3.088  12.565  22.541  0.00  0.00    -0.360 OA
HETATM   36  H   UNL     1       2.552  13.060  23.188  0.00  0.00     0.217 HD
ENDBRANCH   4  35
TORSDOF 7
ENDMDL
