REMARK  7 active torsions:
REMARK  status: ('A' for Active; 'I' for Inactive)
REMARK    1  A    between atoms: C_7  and  N_8 
REMARK    2  A    between atoms: C_14  and  C_15 
REMARK    3  A    between atoms: C_16  and  O_17 
REMARK    4  A    between atoms: C_19  and  O_20 
REMARK    5  A    between atoms: C_22  and  C_23 
REMARK       I    between atoms: C_23  and  N_25 
REMARK    6  A    between atoms: N_25  and  C_27 
REMARK    7  A    between atoms: C_27  and  C_28 
ROOT
HETATM    1  C   UNL     1       0.016  -1.495  -0.257  0.00  0.00     0.046 A 
HETATM    2  C   UNL     1      -1.246  -1.694  -0.808  0.00  0.00     0.082 A 
HETATM    3  C   UNL     1      -2.069  -0.595  -1.072  0.00  0.00     0.075 A 
HETATM    4  C   UNL     1      -1.643   0.713  -0.785  0.00  0.00     0.084 A 
HETATM    5  C   UNL     1       0.408  -0.169   0.089  0.00  0.00     0.038 A 
HETATM    6  C   UNL     1      -0.380   0.961  -0.203  0.00  0.00     0.066 A 
ENDROOT
BRANCH   1   7
HETATM    7  C   UNL     1       1.010  -2.557   0.045  0.00  0.00     0.172 A 
HETATM    8  N   UNL     1       1.297  -3.682  -0.698  0.00  0.00    -0.244 N 
HETATM    9  C   UNL     1       2.280  -4.345   0.006  0.00  0.00     0.349 A 
HETATM   10  O   UNL     1       2.888  -5.368  -0.273  0.00  0.00    -0.245 OA
HETATM   11  N   UNL     1       2.502  -3.585   1.149  0.00  0.00    -0.226 N 
HETATM   12  H   UNL     1       3.186  -3.781   1.856  0.00  0.00     0.194 HD
HETATM   13  N   UNL     1       1.713  -2.477   1.146  0.00  0.00    -0.151 NA
BRANCH   8  14
HETATM   14  C   UNL     1       0.813  -4.200  -1.920  0.00  0.00     0.051 A 
HETATM   15  C   UNL     1       0.962  -3.570  -3.165  0.00  0.00    -0.035 A 
HETATM   16  C   UNL     1       1.785  -2.326  -3.354  0.00  0.00     0.050 C 
HETATM   17  C   UNL     1       0.473  -4.221  -4.322  0.00  0.00     0.009 A 
HETATM   18  C   UNL     1      -0.099  -5.492  -4.252  0.00  0.00     0.001 A 
HETATM   19  C   UNL     1      -0.183  -6.143  -3.027  0.00  0.00     0.002 A 
HETATM   20  C   UNL     1       0.270  -5.503  -1.878  0.00  0.00     0.031 A 
ENDBRANCH   8  14
ENDBRANCH   1   7
BRANCH   2  21
HETATM   21  O   UNL     1      -1.810  -2.905  -1.086  0.00  0.00    -0.360 OA
HETATM   22  H   UNL     1      -1.281  -3.622  -0.703  0.00  0.00     0.217 HD
ENDBRANCH   2  21
BRANCH   6  23
HETATM   23  C   UNL     1       0.200   2.367  -0.185  0.00  0.00     0.256 C 
HETATM   24  O   UNL     1      -0.197   3.141  -1.061  0.00  0.00    -0.267 OA
HETATM   25  N   UNL     1       1.242   2.768   0.677  0.00  0.00    -0.348 N 
HETATM   26  C   UNL     1       1.600   2.110   1.919  0.00  0.00     0.153 C 
BRANCH  25  27
HETATM   27  C   UNL     1       2.027   3.981   0.337  0.00  0.00     0.164 C 
BRANCH  27  28
HETATM   28  C   UNL     1       3.288   3.686  -0.467  0.00  0.00    -0.034 A 
HETATM   29  C   UNL     1       3.110   3.207  -1.781  0.00  0.00     0.009 A 
HETATM   30  C   UNL     1       4.190   2.917  -2.612  0.00  0.00     0.001 A 
HETATM   31  C   UNL     1       5.485   3.111  -2.154  0.00  0.00     0.001 A 
HETATM   32  C   UNL     1       5.692   3.612  -0.874  0.00  0.00     0.007 A 
HETATM   33  C   UNL     1       4.612   3.903  -0.012  0.00  0.00    -0.054 A 
HETATM   34  C   UNL     1       4.953   4.500   1.327  0.00  0.00     0.049 C 
ENDBRANCH  27  28
ENDBRANCH  25  27
ENDBRANCH   6  23
BRANCH   4  35
HETATM   35  O   UNL     1      -2.511   1.731  -1.073  0.00  0.00    -0.360 OA
HETATM   36  H   UNL     1      -3.158   1.436  -1.740  0.00  0.00     0.217 HD
ENDBRANCH   4  35
TORSDOF 7
