MODEL 1
REMARK VINA RESULT:    -8.618      0.000      0.000
REMARK INTER + INTRA:         -12.511
REMARK INTER:                 -11.808
REMARK INTRA:                  -0.703
REMARK UNBOUND:                -1.122
REMARK  6 active torsions:
REMARK  status: ('A' for Active; 'I' for Inactive)
REMARK    1  A    between atoms: C_3  and  N_4 
REMARK    2  A    between atoms: C_9  and  N_10 
REMARK       I    between atoms: N_10  and  C_12 
REMARK    3  A    between atoms: C_12  and  C_14 
REMARK    4  A    between atoms: C_16  and  O_17 
REMARK    5  A    between atoms: C_24  and  C_25 
REMARK    6  A    between atoms: C_25  and  C_26 
ROOT
HETATM    1  C   UNL     1       5.252  12.118  21.199  0.00  0.00     0.066 C 
HETATM    2  C   UNL     1       6.288  12.921  21.733  0.00  0.00     0.035 C 
HETATM    3  C   UNL     1       5.610  11.163  20.224  0.00  0.00     0.083 C 
HETATM    4  C   UNL     1       6.915  11.068  19.712  0.00  0.00     0.069 C 
HETATM    5  C   UNL     1       7.844  12.014  20.150  0.00  0.00     0.065 A 
HETATM    6  C   UNL     1       7.553  12.967  21.118  0.00  0.00     0.020 A 
HETATM    7  N   UNL     1       9.145  12.243  19.803  0.00  0.00    -0.277 N 
HETATM    8  H   UNL     1       9.713  11.702  19.163  0.00  0.00     0.189 HD
HETATM    9  N   UNL     1       9.685  13.333  20.372  0.00  0.00    -0.178 NA
HETATM   10  C   UNL     1       8.714  13.819  21.166  0.00  0.00     0.071 A 
ENDROOT
BRANCH   1  11
HETATM   11  C   UNL     1       3.794  12.244  21.602  0.00  0.00     0.260 C 
HETATM   12  N   UNL     1       3.391  12.262  22.970  0.00  0.00    -0.318 N 
HETATM   13  C   UNL     1       4.387  12.143  24.042  0.00  0.00     0.159 C 
HETATM   14  O   UNL     1       3.025  12.428  20.650  0.00  0.00    -0.267 OA
BRANCH  12  15
HETATM   15  C   UNL     1       1.993  12.261  23.392  0.00  0.00     0.037 A 
HETATM   16  C   UNL     1       1.406  11.115  23.945  0.00  0.00     0.032 A 
HETATM   17  C   UNL     1       0.030  11.008  24.201  0.00  0.00     0.031 A 
HETATM   18  C   UNL     1      -0.859  12.048  23.936  0.00  0.00     0.029 A 
HETATM   19  C   UNL     1      -0.263  13.233  23.502  0.00  0.00     0.031 A 
HETATM   20  C   UNL     1       1.128  13.346  23.238  0.00  0.00     0.032 A 
BRANCH  18  21
HETATM   21  N   UNL     1      -2.225  11.878  24.088  0.00  0.00    -0.390 N 
HETATM   22  C   UNL     1      -2.797  10.971  25.074  0.00  0.00     0.149 C 
HETATM   23  C   UNL     1      -3.194  12.554  23.228  0.00  0.00     0.149 C 
ENDBRANCH  18  21
ENDBRANCH  12  15
ENDBRANCH   1  11
BRANCH   3  24
HETATM   24  O   UNL     1       4.724  10.253  19.698  0.00  0.00    -0.360 OA
HETATM   25  H   UNL     1       4.552   9.569  20.387  0.00  0.00     0.217 HD
ENDBRANCH   3  24
BRANCH  10  26
HETATM   26  C   UNL     1       8.970  15.110  21.915  0.00  0.00     0.100 C 
BRANCH  26  27
HETATM   27  C   UNL     1       8.096  15.235  23.164  0.00  0.00    -0.052 A 
HETATM   28  C   UNL     1       8.501  14.793  24.431  0.00  0.00     0.007 A 
HETATM   29  C   UNL     1       7.680  14.953  25.550  0.00  0.00     0.001 A 
HETATM   30  C   UNL     1       6.395  15.464  25.416  0.00  0.00     0.007 A 
HETATM   31  C   UNL     1       5.896  15.781  24.150  0.00  0.00    -0.061 A 
HETATM   32  C   UNL     1       6.763  15.707  23.039  0.00  0.00     0.014 A 
HETATM   33  C   UNL     1       4.451  16.179  24.019  0.00  0.00     0.048 C 
ENDBRANCH  26  27
ENDBRANCH  10  26
TORSDOF 6
ENDMDL
MODEL 2
REMARK VINA RESULT:    -8.203      4.586      6.029
REMARK INTER + INTRA:         -11.963
REMARK INTER:                 -10.868
REMARK INTRA:                  -1.095
REMARK UNBOUND:                -1.122
REMARK  6 active torsions:
REMARK  status: ('A' for Active; 'I' for Inactive)
REMARK    1  A    between atoms: C_3  and  N_4 
REMARK    2  A    between atoms: C_9  and  N_10 
REMARK       I    between atoms: N_10  and  C_12 
REMARK    3  A    between atoms: C_12  and  C_14 
REMARK    4  A    between atoms: C_16  and  O_17 
REMARK    5  A    between atoms: C_24  and  C_25 
REMARK    6  A    between atoms: C_25  and  C_26 
ROOT
HETATM    1  C   UNL     1       9.926  10.519  23.269  0.00  0.00     0.066 C 
HETATM    2  C   UNL     1       9.743  11.794  23.856  0.00  0.00     0.035 C 
HETATM    3  C   UNL     1      10.882  10.414  22.237  0.00  0.00     0.083 C 
HETATM    4  C   UNL     1      11.560  11.533  21.726  0.00  0.00     0.069 C 
HETATM    5  C   UNL     1      11.196  12.784  22.227  0.00  0.00     0.065 A 
HETATM    6  C   UNL     1      10.273  12.949  23.251  0.00  0.00     0.020 A 
HETATM    7  N   UNL     1      11.597  14.049  21.901  0.00  0.00    -0.277 N 
HETATM    8  H   UNL     1      12.308  14.313  21.231  0.00  0.00     0.189 HD
HETATM    9  N   UNL     1      10.929  15.023  22.541  0.00  0.00    -0.178 NA
HETATM   10  C   UNL     1      10.082  14.373  23.359  0.00  0.00     0.071 A 
ENDROOT
BRANCH   1  11
HETATM   11  C   UNL     1       9.141   9.284  23.672  0.00  0.00     0.260 C 
HETATM   12  N   UNL     1       7.796   9.076  23.244  0.00  0.00    -0.318 N 
HETATM   13  C   UNL     1       7.120  10.068  22.402  0.00  0.00     0.159 C 
HETATM   14  O   UNL     1       9.804   8.454  24.306  0.00  0.00    -0.267 OA
BRANCH  12  15
HETATM   15  C   UNL     1       6.974   7.962  23.709  0.00  0.00     0.037 A 
HETATM   16  C   UNL     1       5.773   8.189  24.395  0.00  0.00     0.032 A 
HETATM   17  C   UNL     1       5.040   7.164  25.013  0.00  0.00     0.031 A 
HETATM   18  C   UNL     1       5.447   5.832  24.976  0.00  0.00     0.029 A 
HETATM   19  C   UNL     1       6.574   5.584  24.191  0.00  0.00     0.031 A 
HETATM   20  C   UNL     1       7.322   6.617  23.567  0.00  0.00     0.032 A 
BRANCH  18  21
HETATM   21  N   UNL     1       4.771   4.856  25.690  0.00  0.00    -0.390 N 
HETATM   22  C   UNL     1       3.438   4.398  25.321  0.00  0.00     0.149 C 
HETATM   23  C   UNL     1       5.321   4.256  26.904  0.00  0.00     0.149 C 
ENDBRANCH  18  21
ENDBRANCH  12  15
ENDBRANCH   1  11
BRANCH   3  24
HETATM   24  O   UNL     1      11.231   9.220  21.650  0.00  0.00    -0.360 OA
HETATM   25  H   UNL     1      11.367   8.561  22.370  0.00  0.00     0.217 HD
ENDBRANCH   3  24
BRANCH  10  26
HETATM   26  C   UNL     1       9.111  15.186  24.189  0.00  0.00     0.100 C 
BRANCH  26  27
HETATM   27  C   UNL     1       7.659  14.964  23.761  0.00  0.00    -0.052 A 
HETATM   28  C   UNL     1       7.301  14.305  22.577  0.00  0.00     0.007 A 
HETATM   29  C   UNL     1       5.961  14.100  22.239  0.00  0.00     0.001 A 
HETATM   30  C   UNL     1       4.946  14.636  23.021  0.00  0.00     0.007 A 
HETATM   31  C   UNL     1       5.260  15.426  24.130  0.00  0.00    -0.061 A 
HETATM   32  C   UNL     1       6.610  15.548  24.518  0.00  0.00     0.014 A 
HETATM   33  C   UNL     1       4.145  16.124  24.861  0.00  0.00     0.048 C 
ENDBRANCH  26  27
ENDBRANCH  10  26
TORSDOF 6
ENDMDL
MODEL 3
REMARK VINA RESULT:    -8.093      3.615      6.075
REMARK INTER + INTRA:         -11.816
REMARK INTER:                 -10.514
REMARK INTRA:                  -1.302
REMARK UNBOUND:                -1.122
REMARK  6 active torsions:
REMARK  status: ('A' for Active; 'I' for Inactive)
REMARK    1  A    between atoms: C_3  and  N_4 
REMARK    2  A    between atoms: C_9  and  N_10 
REMARK       I    between atoms: N_10  and  C_12 
REMARK    3  A    between atoms: C_12  and  C_14 
REMARK    4  A    between atoms: C_16  and  O_17 
REMARK    5  A    between atoms: C_24  and  C_25 
REMARK    6  A    between atoms: C_25  and  C_26 
ROOT
HETATM    1  C   UNL     1       7.016  11.866  21.431  0.00  0.00     0.066 C 
HETATM    2  C   UNL     1       6.262  12.905  22.026  0.00  0.00     0.035 C 
HETATM    3  C   UNL     1       8.294  11.605  21.970  0.00  0.00     0.083 C 
HETATM    4  C   UNL     1       8.857  12.399  22.983  0.00  0.00     0.069 C 
HETATM    5  C   UNL     1       8.132  13.519  23.394  0.00  0.00     0.065 A 
HETATM    6  C   UNL     1       6.864  13.818  22.911  0.00  0.00     0.020 A 
HETATM    7  N   UNL     1       8.419  14.516  24.283  0.00  0.00    -0.277 N 
HETATM    8  H   UNL     1       9.239  14.594  24.872  0.00  0.00     0.189 HD
HETATM    9  N   UNL     1       7.502  15.496  24.330  0.00  0.00    -0.178 NA
HETATM   10  C   UNL     1       6.544  15.107  23.469  0.00  0.00     0.071 A 
ENDROOT
BRANCH   1  11
HETATM   11  C   UNL     1       6.536  11.045  20.248  0.00  0.00     0.260 C 
HETATM   12  N   UNL     1       5.502  10.071  20.380  0.00  0.00    -0.318 N 
HETATM   13  C   UNL     1       4.873   9.823  21.682  0.00  0.00     0.159 C 
HETATM   14  O   UNL     1       7.050  11.371  19.171  0.00  0.00    -0.267 OA
BRANCH  12  15
HETATM   15  C   UNL     1       5.100   9.182  19.293  0.00  0.00     0.037 A 
HETATM   16  C   UNL     1       4.198   9.607  18.309  0.00  0.00     0.032 A 
HETATM   17  C   UNL     1       3.647   8.742  17.351  0.00  0.00     0.031 A 
HETATM   18  C   UNL     1       3.971   7.388  17.298  0.00  0.00     0.029 A 
HETATM   19  C   UNL     1       4.962   6.986  18.195  0.00  0.00     0.031 A 
HETATM   20  C   UNL     1       5.520   7.856  19.169  0.00  0.00     0.032 A 
BRANCH  18  21
HETATM   21  N   UNL     1       3.329   6.531  16.419  0.00  0.00    -0.390 N 
HETATM   22  C   UNL     1       2.191   6.946  15.611  0.00  0.00     0.149 C 
HETATM   23  C   UNL     1       3.709   5.126  16.284  0.00  0.00     0.149 C 
ENDBRANCH  18  21
ENDBRANCH  12  15
ENDBRANCH   1  11
BRANCH   3  24
HETATM   24  O   UNL     1       9.089  10.562  21.556  0.00  0.00    -0.360 OA
HETATM   25  H   UNL     1       9.929  10.944  21.210  0.00  0.00     0.217 HD
ENDBRANCH   3  24
BRANCH  10  26
HETATM   26  C   UNL     1       5.374  16.036  23.222  0.00  0.00     0.100 C 
BRANCH  26  27
HETATM   27  C   UNL     1       4.054  15.447  23.723  0.00  0.00    -0.052 A 
HETATM   28  C   UNL     1       3.731  15.337  25.082  0.00  0.00     0.007 A 
HETATM   29  C   UNL     1       2.501  14.817  25.494  0.00  0.00     0.001 A 
HETATM   30  C   UNL     1       1.607  14.300  24.565  0.00  0.00     0.007 A 
HETATM   31  C   UNL     1       1.951  14.254  23.211  0.00  0.00    -0.061 A 
HETATM   32  C   UNL     1       3.151  14.867  22.794  0.00  0.00     0.014 A 
HETATM   33  C   UNL     1       1.032  13.545  22.254  0.00  0.00     0.048 C 
ENDBRANCH  26  27
ENDBRANCH  10  26
TORSDOF 6
ENDMDL
MODEL 4
REMARK VINA RESULT:    -8.082      4.091      5.717
REMARK INTER + INTRA:         -11.803
REMARK INTER:                 -11.123
REMARK INTRA:                  -0.680
REMARK UNBOUND:                -1.122
REMARK  6 active torsions:
REMARK  status: ('A' for Active; 'I' for Inactive)
REMARK    1  A    between atoms: C_3  and  N_4 
REMARK    2  A    between atoms: C_9  and  N_10 
REMARK       I    between atoms: N_10  and  C_12 
REMARK    3  A    between atoms: C_12  and  C_14 
REMARK    4  A    between atoms: C_16  and  O_17 
REMARK    5  A    between atoms: C_24  and  C_25 
REMARK    6  A    between atoms: C_25  and  C_26 
ROOT
HETATM    1  C   UNL     1       8.922  10.946  23.396  0.00  0.00     0.066 C 
HETATM    2  C   UNL     1       8.634  11.944  24.357  0.00  0.00     0.035 C 
HETATM    3  C   UNL     1      10.265  10.530  23.278  0.00  0.00     0.083 C 
HETATM    4  C   UNL     1      11.305  11.140  23.999  0.00  0.00     0.069 C 
HETATM    5  C   UNL     1      10.973  12.240  24.792  0.00  0.00     0.065 A 
HETATM    6  C   UNL     1       9.668  12.686  24.958  0.00  0.00     0.020 A 
HETATM    7  N   UNL     1      11.738  13.086  25.544  0.00  0.00    -0.277 N 
HETATM    8  H   UNL     1      12.735  13.029  25.708  0.00  0.00     0.189 HD
HETATM    9  N   UNL     1      11.059  14.110  26.087  0.00  0.00    -0.178 NA
HETATM   10  C   UNL     1       9.782  13.906  25.715  0.00  0.00     0.071 A 
ENDROOT
BRANCH   1  11
HETATM   11  C   UNL     1       7.878  10.327  22.484  0.00  0.00     0.260 C 
HETATM   12  N   UNL     1       7.493  10.942  21.257  0.00  0.00    -0.318 N 
HETATM   13  C   UNL     1       8.092  12.215  20.841  0.00  0.00     0.159 C 
HETATM   14  O   UNL     1       7.485   9.214  22.857  0.00  0.00    -0.267 OA
BRANCH  12  15
HETATM   15  C   UNL     1       6.409  10.438  20.416  0.00  0.00     0.037 A 
HETATM   16  C   UNL     1       5.813   9.197  20.676  0.00  0.00     0.032 A 
HETATM   17  C   UNL     1       4.897   8.592  19.802  0.00  0.00     0.031 A 
HETATM   18  C   UNL     1       4.497   9.193  18.610  0.00  0.00     0.029 A 
HETATM   19  C   UNL     1       4.992  10.482  18.407  0.00  0.00     0.031 A 
HETATM   20  C   UNL     1       5.922  11.098  19.286  0.00  0.00     0.032 A 
BRANCH  18  21
HETATM   21  N   UNL     1       3.682   8.526  17.709  0.00  0.00    -0.390 N 
HETATM   22  C   UNL     1       2.756   7.478  18.117  0.00  0.00     0.149 C 
HETATM   23  C   UNL     1       3.736   8.784  16.272  0.00  0.00     0.149 C 
ENDBRANCH  18  21
ENDBRANCH  12  15
ENDBRANCH   1  11
BRANCH   3  24
HETATM   24  O   UNL     1      10.667   9.502  22.458  0.00  0.00    -0.360 OA
HETATM   25  H   UNL     1      10.510   8.656  22.939  0.00  0.00     0.217 HD
ENDBRANCH   3  24
BRANCH  10  26
HETATM   26  C   UNL     1       8.742  14.936  26.105  0.00  0.00     0.100 C 
BRANCH  26  27
HETATM   27  C   UNL     1       7.694  15.139  25.010  0.00  0.00    -0.052 A 
HETATM   28  C   UNL     1       8.020  15.335  23.661  0.00  0.00     0.007 A 
HETATM   29  C   UNL     1       7.028  15.489  22.691  0.00  0.00     0.001 A 
HETATM   30  C   UNL     1       5.689  15.554  23.054  0.00  0.00     0.007 A 
HETATM   31  C   UNL     1       5.327  15.512  24.404  0.00  0.00    -0.061 A 
HETATM   32  C   UNL     1       6.325  15.260  25.367  0.00  0.00     0.014 A 
HETATM   33  C   UNL     1       3.888  15.746  24.775  0.00  0.00     0.048 C 
ENDBRANCH  26  27
ENDBRANCH  10  26
TORSDOF 6
ENDMDL
MODEL 5
REMARK VINA RESULT:    -7.893      3.862      6.347
REMARK INTER + INTRA:         -11.553
REMARK INTER:                 -10.756
REMARK INTRA:                  -0.796
REMARK UNBOUND:                -1.122
REMARK  6 active torsions:
REMARK  status: ('A' for Active; 'I' for Inactive)
REMARK    1  A    between atoms: C_3  and  N_4 
REMARK    2  A    between atoms: C_9  and  N_10 
REMARK       I    between atoms: N_10  and  C_12 
REMARK    3  A    between atoms: C_12  and  C_14 
REMARK    4  A    between atoms: C_16  and  O_17 
REMARK    5  A    between atoms: C_24  and  C_25 
REMARK    6  A    between atoms: C_25  and  C_26 
ROOT
HETATM    1  C   UNL     1       5.554  11.943  21.244  0.00  0.00     0.066 C 
HETATM    2  C   UNL     1       6.662  12.820  21.174  0.00  0.00     0.035 C 
HETATM    3  C   UNL     1       4.407  12.404  21.925  0.00  0.00     0.083 C 
HETATM    4  C   UNL     1       4.381  13.635  22.602  0.00  0.00     0.069 C 
HETATM    5  C   UNL     1       5.569  14.365  22.646  0.00  0.00     0.065 A 
HETATM    6  C   UNL     1       6.725  13.970  21.984  0.00  0.00     0.020 A 
HETATM    7  N   UNL     1       5.898  15.537  23.269  0.00  0.00    -0.277 N 
HETATM    8  H   UNL     1       5.284  16.141  23.799  0.00  0.00     0.189 HD
HETATM    9  N   UNL     1       7.194  15.872  23.166  0.00  0.00    -0.178 NA
HETATM   10  C   UNL     1       7.737  14.905  22.404  0.00  0.00     0.071 A 
ENDROOT
BRANCH   1  11
HETATM   11  C   UNL     1       5.545  10.546  20.652  0.00  0.00     0.260 C 
HETATM   12  N   UNL     1       5.071  10.293  19.331  0.00  0.00    -0.318 N 
HETATM   13  C   UNL     1       4.560  11.389  18.500  0.00  0.00     0.159 C 
HETATM   14  O   UNL     1       6.071   9.691  21.377  0.00  0.00    -0.267 OA
BRANCH  12  15
HETATM   15  C   UNL     1       4.936   8.949  18.775  0.00  0.00     0.037 A 
HETATM   16  C   UNL     1       5.268   8.684  17.439  0.00  0.00     0.032 A 
HETATM   17  C   UNL     1       4.992   7.460  16.811  0.00  0.00     0.031 A 
HETATM   18  C   UNL     1       4.377   6.403  17.479  0.00  0.00     0.029 A 
HETATM   19  C   UNL     1       4.158   6.617  18.841  0.00  0.00     0.031 A 
HETATM   20  C   UNL     1       4.431   7.855  19.481  0.00  0.00     0.032 A 
BRANCH  18  21
HETATM   21  N   UNL     1       4.011   5.247  16.808  0.00  0.00    -0.390 N 
HETATM   22  C   UNL     1       3.413   5.268  15.480  0.00  0.00     0.149 C 
HETATM   23  C   UNL     1       4.143   3.923  17.411  0.00  0.00     0.149 C 
ENDBRANCH  18  21
ENDBRANCH  12  15
ENDBRANCH   1  11
BRANCH   3  24
HETATM   24  O   UNL     1       3.229  11.698  21.982  0.00  0.00    -0.360 OA
HETATM   25  H   UNL     1       2.659  12.005  21.239  0.00  0.00     0.217 HD
ENDBRANCH   3  24
BRANCH  10  26
HETATM   26  C   UNL     1       9.228  14.939  22.146  0.00  0.00     0.100 C 
BRANCH  26  27
HETATM   27  C   UNL     1      10.038  14.938  23.444  0.00  0.00    -0.052 A 
HETATM   28  C   UNL     1      10.915  15.971  23.802  0.00  0.00     0.007 A 
HETATM   29  C   UNL     1      11.614  15.941  25.011  0.00  0.00     0.001 A 
HETATM   30  C   UNL     1      11.534  14.834  25.846  0.00  0.00     0.007 A 
HETATM   31  C   UNL     1      10.786  13.718  25.459  0.00  0.00    -0.061 A 
HETATM   32  C   UNL     1      10.009  13.794  24.285  0.00  0.00     0.014 A 
HETATM   33  C   UNL     1      10.849  12.476  26.306  0.00  0.00     0.048 C 
ENDBRANCH  26  27
ENDBRANCH  10  26
TORSDOF 6
ENDMDL
MODEL 6
REMARK VINA RESULT:    -7.881      4.638      6.631
REMARK INTER + INTRA:         -11.537
REMARK INTER:                 -10.648
REMARK INTRA:                  -0.889
REMARK UNBOUND:                -1.122
REMARK  6 active torsions:
REMARK  status: ('A' for Active; 'I' for Inactive)
REMARK    1  A    between atoms: C_3  and  N_4 
REMARK    2  A    between atoms: C_9  and  N_10 
REMARK       I    between atoms: N_10  and  C_12 
REMARK    3  A    between atoms: C_12  and  C_14 
REMARK    4  A    between atoms: C_16  and  O_17 
REMARK    5  A    between atoms: C_24  and  C_25 
REMARK    6  A    between atoms: C_25  and  C_26 
ROOT
HETATM    1  C   UNL     1       9.399  11.475  22.958  0.00  0.00     0.066 C 
HETATM    2  C   UNL     1       8.719  12.625  23.426  0.00  0.00     0.035 C 
HETATM    3  C   UNL     1      10.361  11.662  21.942  0.00  0.00     0.083 C 
HETATM    4  C   UNL     1      10.575  12.909  21.332  0.00  0.00     0.069 C 
HETATM    5  C   UNL     1       9.741  13.960  21.717  0.00  0.00     0.065 A 
HETATM    6  C   UNL     1       8.787  13.840  22.719  0.00  0.00     0.020 A 
HETATM    7  N   UNL     1       9.637  15.250  21.277  0.00  0.00    -0.277 N 
HETATM    8  H   UNL     1      10.217  15.710  20.588  0.00  0.00     0.189 HD
HETATM    9  N   UNL     1       8.622  15.939  21.824  0.00  0.00    -0.178 NA
HETATM   10  C   UNL     1       8.060  15.084  22.696  0.00  0.00     0.071 A 
ENDROOT
BRANCH   1  11
HETATM   11  C   UNL     1       9.134  10.071  23.470  0.00  0.00     0.260 C 
HETATM   12  N   UNL     1       8.026   9.300  23.010  0.00  0.00    -0.318 N 
HETATM   13  C   UNL     1       7.091   9.854  22.024  0.00  0.00     0.159 C 
HETATM   14  O   UNL     1      10.012   9.641  24.230  0.00  0.00    -0.267 OA
BRANCH  12  15
HETATM   15  C   UNL     1       7.674   7.997  23.567  0.00  0.00     0.037 A 
HETATM   16  C   UNL     1       8.580   6.929  23.535  0.00  0.00     0.032 A 
HETATM   17  C   UNL     1       8.231   5.618  23.895  0.00  0.00     0.031 A 
HETATM   18  C   UNL     1       6.950   5.283  24.329  0.00  0.00     0.029 A 
HETATM   19  C   UNL     1       6.079   6.363  24.481  0.00  0.00     0.031 A 
HETATM   20  C   UNL     1       6.426   7.691  24.115  0.00  0.00     0.032 A 
BRANCH  18  21
HETATM   21  N   UNL     1       6.597   3.964  24.568  0.00  0.00    -0.390 N 
HETATM   22  C   UNL     1       5.215   3.546  24.764  0.00  0.00     0.149 C 
HETATM   23  C   UNL     1       7.593   2.903  24.701  0.00  0.00     0.149 C 
ENDBRANCH  18  21
ENDBRANCH  12  15
ENDBRANCH   1  11
BRANCH   3  24
HETATM   24  O   UNL     1      11.163  10.650  21.468  0.00  0.00    -0.360 OA
HETATM   25  H   UNL     1      10.854   9.807  21.874  0.00  0.00     0.217 HD
ENDBRANCH   3  24
BRANCH  10  26
HETATM   26  C   UNL     1       6.821  15.525  23.446  0.00  0.00     0.100 C 
BRANCH  26  27
HETATM   27  C   UNL     1       5.594  14.691  23.074  0.00  0.00    -0.052 A 
HETATM   28  C   UNL     1       5.650  13.585  22.216  0.00  0.00     0.007 A 
HETATM   29  C   UNL     1       4.507  12.836  21.925  0.00  0.00     0.001 A 
HETATM   30  C   UNL     1       3.264  13.230  22.401  0.00  0.00     0.007 A 
HETATM   31  C   UNL     1       3.139  14.411  23.139  0.00  0.00    -0.061 A 
HETATM   32  C   UNL     1       4.308  15.108  23.508  0.00  0.00     0.014 A 
HETATM   33  C   UNL     1       1.762  14.896  23.502  0.00  0.00     0.048 C 
ENDBRANCH  26  27
ENDBRANCH  10  26
TORSDOF 6
ENDMDL
MODEL 7
REMARK VINA RESULT:    -7.808      4.241      6.348
REMARK INTER + INTRA:         -11.440
REMARK INTER:                 -10.204
REMARK INTRA:                  -1.236
REMARK UNBOUND:                -1.122
REMARK  6 active torsions:
REMARK  status: ('A' for Active; 'I' for Inactive)
REMARK    1  A    between atoms: C_3  and  N_4 
REMARK    2  A    between atoms: C_9  and  N_10 
REMARK       I    between atoms: N_10  and  C_12 
REMARK    3  A    between atoms: C_12  and  C_14 
REMARK    4  A    between atoms: C_16  and  O_17 
REMARK    5  A    between atoms: C_24  and  C_25 
REMARK    6  A    between atoms: C_25  and  C_26 
ROOT
HETATM    1  C   UNL     1       6.760  13.727  23.484  0.00  0.00     0.066 C 
HETATM    2  C   UNL     1       8.142  14.031  23.440  0.00  0.00     0.035 C 
HETATM    3  C   UNL     1       6.051  14.109  24.642  0.00  0.00     0.083 C 
HETATM    4  C   UNL     1       6.688  14.673  25.760  0.00  0.00     0.069 C 
HETATM    5  C   UNL     1       8.080  14.776  25.718  0.00  0.00     0.065 A 
HETATM    6  C   UNL     1       8.830  14.429  24.601  0.00  0.00     0.020 A 
HETATM    7  N   UNL     1       8.992  15.199  26.643  0.00  0.00    -0.277 N 
HETATM    8  H   UNL     1       8.801  15.582  27.560  0.00  0.00     0.189 HD
HETATM    9  N   UNL     1      10.272  15.045  26.268  0.00  0.00    -0.178 NA
HETATM   10  C   UNL     1      10.203  14.543  25.021  0.00  0.00     0.071 A 
ENDROOT
BRANCH   1  11
HETATM   11  C   UNL     1       6.020  13.002  22.375  0.00  0.00     0.260 C 
HETATM   12  N   UNL     1       6.312  11.648  22.037  0.00  0.00    -0.318 N 
HETATM   13  C   UNL     1       7.358  10.910  22.753  0.00  0.00     0.159 C 
HETATM   14  O   UNL     1       5.095  13.658  21.878  0.00  0.00    -0.267 OA
BRANCH  12  15
HETATM   15  C   UNL     1       5.705  10.960  20.900  0.00  0.00     0.037 A 
HETATM   16  C   UNL     1       5.205   9.657  21.029  0.00  0.00     0.032 A 
HETATM   17  C   UNL     1       4.776   8.891  19.934  0.00  0.00     0.031 A 
HETATM   18  C   UNL     1       4.801   9.380  18.629  0.00  0.00     0.029 A 
HETATM   19  C   UNL     1       5.180  10.718  18.510  0.00  0.00     0.031 A 
HETATM   20  C   UNL     1       5.619  11.496  19.614  0.00  0.00     0.032 A 
BRANCH  18  21
HETATM   21  N   UNL     1       4.482   8.567  17.553  0.00  0.00    -0.390 N 
HETATM   22  C   UNL     1       5.481   7.785  16.839  0.00  0.00     0.149 C 
HETATM   23  C   UNL     1       3.125   8.483  17.017  0.00  0.00     0.149 C 
ENDBRANCH  18  21
ENDBRANCH  12  15
ENDBRANCH   1  11
BRANCH   3  24
HETATM   24  O   UNL     1       4.690  13.966  24.775  0.00  0.00    -0.360 OA
HETATM   25  H   UNL     1       4.498  13.787  25.725  0.00  0.00     0.217 HD
ENDBRANCH   3  24
BRANCH  10  26
HETATM   26  C   UNL     1      11.492  14.177  24.317  0.00  0.00     0.100 C 
BRANCH  26  27
HETATM   27  C   UNL     1      11.346  12.916  23.463  0.00  0.00    -0.052 A 
HETATM   28  C   UNL     1      11.414  12.925  22.064  0.00  0.00     0.007 A 
HETATM   29  C   UNL     1      11.301  11.744  21.325  0.00  0.00     0.001 A 
HETATM   30  C   UNL     1      11.017  10.541  21.958  0.00  0.00     0.007 A 
HETATM   31  C   UNL     1      10.794  10.510  23.338  0.00  0.00    -0.061 A 
HETATM   32  C   UNL     1      11.004  11.687  24.086  0.00  0.00     0.014 A 
HETATM   33  C   UNL     1      10.331   9.225  23.968  0.00  0.00     0.048 C 
ENDBRANCH  26  27
ENDBRANCH  10  26
TORSDOF 6
ENDMDL
MODEL 8
REMARK VINA RESULT:    -7.789      3.451      6.935
REMARK INTER + INTRA:         -11.415
REMARK INTER:                 -10.699
REMARK INTRA:                  -0.716
REMARK UNBOUND:                -1.122
REMARK  6 active torsions:
REMARK  status: ('A' for Active; 'I' for Inactive)
REMARK    1  A    between atoms: C_3  and  N_4 
REMARK    2  A    between atoms: C_9  and  N_10 
REMARK       I    between atoms: N_10  and  C_12 
REMARK    3  A    between atoms: C_12  and  C_14 
REMARK    4  A    between atoms: C_16  and  O_17 
REMARK    5  A    between atoms: C_24  and  C_25 
REMARK    6  A    between atoms: C_25  and  C_26 
ROOT
HETATM    1  C   UNL     1       5.231  12.378  21.734  0.00  0.00     0.066 C 
HETATM    2  C   UNL     1       4.362  12.806  22.767  0.00  0.00     0.035 C 
HETATM    3  C   UNL     1       6.451  13.071  21.586  0.00  0.00     0.083 C 
HETATM    4  C   UNL     1       6.765  14.207  22.351  0.00  0.00     0.069 C 
HETATM    5  C   UNL     1       5.784  14.682  23.223  0.00  0.00     0.065 A 
HETATM    6  C   UNL     1       4.571  14.034  23.421  0.00  0.00     0.020 A 
HETATM    7  N   UNL     1       5.739  15.779  24.036  0.00  0.00    -0.277 N 
HETATM    8  H   UNL     1       6.477  16.454  24.195  0.00  0.00     0.189 HD
HETATM    9  N   UNL     1       4.560  15.963  24.652  0.00  0.00    -0.178 NA
HETATM   10  C   UNL     1       3.808  14.916  24.266  0.00  0.00     0.071 A 
ENDROOT
BRANCH   1  11
HETATM   11  C   UNL     1       4.911  11.242  20.779  0.00  0.00     0.260 C 
HETATM   12  N   UNL     1       5.393   9.918  20.998  0.00  0.00    -0.318 N 
HETATM   13  C   UNL     1       6.233   9.613  22.161  0.00  0.00     0.159 C 
HETATM   14  O   UNL     1       4.127  11.555  19.873  0.00  0.00    -0.267 OA
BRANCH  12  15
HETATM   15  C   UNL     1       5.205   8.831  20.040  0.00  0.00     0.037 A 
HETATM   16  C   UNL     1       5.567   8.985  18.695  0.00  0.00     0.032 A 
HETATM   17  C   UNL     1       5.247   8.042  17.705  0.00  0.00     0.031 A 
HETATM   18  C   UNL     1       4.556   6.868  17.992  0.00  0.00     0.029 A 
HETATM   19  C   UNL     1       4.303   6.651  19.348  0.00  0.00     0.031 A 
HETATM   20  C   UNL     1       4.621   7.603  20.353  0.00  0.00     0.032 A 
BRANCH  18  21
HETATM   21  N   UNL     1       4.151   6.009  16.982  0.00  0.00    -0.390 N 
HETATM   22  C   UNL     1       3.749   6.483  15.665  0.00  0.00     0.149 C 
HETATM   23  C   UNL     1       4.040   4.566  17.185  0.00  0.00     0.149 C 
ENDBRANCH  18  21
ENDBRANCH  12  15
ENDBRANCH   1  11
BRANCH   3  24
HETATM   24  O   UNL     1       7.427  12.697  20.693  0.00  0.00    -0.360 OA
HETATM   25  H   UNL     1       7.532  11.720  20.755  0.00  0.00     0.217 HD
ENDBRANCH   3  24
BRANCH  10  26
HETATM   26  C   UNL     1       2.368  14.851  24.730  0.00  0.00     0.100 C 
BRANCH  26  27
HETATM   27  C   UNL     1       1.440  14.286  23.653  0.00  0.00    -0.052 A 
HETATM   28  C   UNL     1       1.558  14.606  22.294  0.00  0.00     0.007 A 
HETATM   29  C   UNL     1       0.704  14.045  21.341  0.00  0.00     0.001 A 
HETATM   30  C   UNL     1      -0.351  13.231  21.731  0.00  0.00     0.007 A 
HETATM   31  C   UNL     1      -0.596  13.003  23.088  0.00  0.00    -0.061 A 
HETATM   32  C   UNL     1       0.326  13.494  24.037  0.00  0.00     0.014 A 
HETATM   33  C   UNL     1      -1.837  12.252  23.484  0.00  0.00     0.048 C 
ENDBRANCH  26  27
ENDBRANCH  10  26
TORSDOF 6
ENDMDL
MODEL 9
REMARK VINA RESULT:    -7.763      3.000      3.522
REMARK INTER + INTRA:         -11.380
REMARK INTER:                 -10.259
REMARK INTRA:                  -1.122
REMARK UNBOUND:                -1.122
REMARK  6 active torsions:
REMARK  status: ('A' for Active; 'I' for Inactive)
REMARK    1  A    between atoms: C_3  and  N_4 
REMARK    2  A    between atoms: C_9  and  N_10 
REMARK       I    between atoms: N_10  and  C_12 
REMARK    3  A    between atoms: C_12  and  C_14 
REMARK    4  A    between atoms: C_16  and  O_17 
REMARK    5  A    between atoms: C_24  and  C_25 
REMARK    6  A    between atoms: C_25  and  C_26 
ROOT
HETATM    1  C   UNL     1       5.666  10.743  22.631  0.00  0.00     0.066 C 
HETATM    2  C   UNL     1       6.858  11.475  22.845  0.00  0.00     0.035 C 
HETATM    3  C   UNL     1       5.436  10.248  21.330  0.00  0.00     0.083 C 
HETATM    4  C   UNL     1       6.287  10.547  20.253  0.00  0.00     0.069 C 
HETATM    5  C   UNL     1       7.343  11.426  20.498  0.00  0.00     0.065 A 
HETATM    6  C   UNL     1       7.628  11.934  21.760  0.00  0.00     0.020 A 
HETATM    7  N   UNL     1       8.289  11.969  19.674  0.00  0.00    -0.277 N 
HETATM    8  H   UNL     1       8.426  11.778  18.690  0.00  0.00     0.189 HD
HETATM    9  N   UNL     1       9.085  12.874  20.267  0.00  0.00    -0.178 NA
HETATM   10  C   UNL     1       8.679  12.895  21.550  0.00  0.00     0.071 A 
ENDROOT
BRANCH   1  11
HETATM   11  C   UNL     1       4.629  10.485  23.709  0.00  0.00     0.260 C 
HETATM   12  N   UNL     1       4.574   9.249  24.419  0.00  0.00    -0.318 N 
HETATM   13  C   UNL     1       5.523   8.172  24.115  0.00  0.00     0.159 C 
HETATM   14  O   UNL     1       3.923  11.468  23.970  0.00  0.00    -0.267 OA
BRANCH  12  15
HETATM   15  C   UNL     1       3.518   8.923  25.374  0.00  0.00     0.037 A 
HETATM   16  C   UNL     1       3.827   8.502  26.675  0.00  0.00     0.032 A 
HETATM   17  C   UNL     1       2.863   8.011  27.568  0.00  0.00     0.031 A 
HETATM   18  C   UNL     1       1.514   7.921  27.231  0.00  0.00     0.029 A 
HETATM   19  C   UNL     1       1.183   8.454  25.985  0.00  0.00     0.031 A 
HETATM   20  C   UNL     1       2.155   8.948  25.075  0.00  0.00     0.032 A 
BRANCH  18  21
HETATM   21  N   UNL     1       0.600   7.327  28.087  0.00  0.00    -0.390 N 
HETATM   22  C   UNL     1      -0.663   6.771  27.620  0.00  0.00     0.149 C 
HETATM   23  C   UNL     1       0.809   7.270  29.532  0.00  0.00     0.149 C 
ENDBRANCH  18  21
ENDBRANCH  12  15
ENDBRANCH   1  11
BRANCH   3  24
HETATM   24  O   UNL     1       4.373   9.439  21.008  0.00  0.00    -0.360 OA
HETATM   25  H   UNL     1       4.485   9.154  20.071  0.00  0.00     0.217 HD
ENDBRANCH   3  24
BRANCH  10  26
HETATM   26  C   UNL     1       9.332  13.879  22.498  0.00  0.00     0.100 C 
BRANCH  26  27
HETATM   27  C   UNL     1       8.344  14.429  23.528  0.00  0.00    -0.052 A 
HETATM   28  C   UNL     1       8.462  14.196  24.905  0.00  0.00     0.007 A 
HETATM   29  C   UNL     1       7.550  14.741  25.812  0.00  0.00     0.001 A 
HETATM   30  C   UNL     1       6.442  15.447  25.362  0.00  0.00     0.007 A 
HETATM   31  C   UNL     1       6.205  15.579  23.991  0.00  0.00    -0.061 A 
HETATM   32  C   UNL     1       7.179  15.109  23.085  0.00  0.00     0.014 A 
HETATM   33  C   UNL     1       4.916  16.208  23.536  0.00  0.00     0.048 C 
ENDBRANCH  26  27
ENDBRANCH  10  26
TORSDOF 6
ENDMDL
