MODEL 1
REMARK VINA RESULT:    -8.087      0.000      0.000
REMARK INTER + INTRA:         -12.524
REMARK INTER:                 -11.472
REMARK INTRA:                  -1.052
REMARK UNBOUND:                -1.365
REMARK  7 active torsions:
REMARK  status: ('A' for Active; 'I' for Inactive)
REMARK    1  A    between atoms: C_2  and  C_4 
REMARK    2  A    between atoms: C_4  and  N_5 
REMARK       I    between atoms: N_5  and  C_7 
REMARK    3  A    between atoms: C_7  and  C_9 
REMARK    4  A    between atoms: C_16  and  C_20 
REMARK    5  A    between atoms: C_17  and  O_19 
REMARK       I    between atoms: C_20  and  N_22 
REMARK    6  A    between atoms: N_22  and  C_24 
REMARK    7  A    between atoms: C_27  and  N_30 
ROOT
HETATM    1  C   UNL     1      13.550  12.725  22.897  0.00  0.00     0.157 A 
HETATM    2  N   UNL     1      14.430  11.982  22.196  0.00  0.00    -0.168 NA
HETATM    3  N   UNL     1      13.670  11.147  21.469  0.00  0.00    -0.277 N 
HETATM    4  H   UNL     1      14.131  10.483  20.858  0.00  0.00     0.189 HD
HETATM    5  C   UNL     1      12.216  12.300  22.620  0.00  0.00     0.029 A 
HETATM    6  C   UNL     1      12.328  11.312  21.657  0.00  0.00     0.065 A 
HETATM    7  C   UNL     1      10.936  12.673  23.075  0.00  0.00     0.036 C 
HETATM    8  C   UNL     1       9.801  12.140  22.468  0.00  0.00     0.066 C 
HETATM    9  C   UNL     1       9.968  11.084  21.548  0.00  0.00     0.083 C 
HETATM   10  C   UNL     1      11.226  10.659  21.106  0.00  0.00     0.069 C 
ENDROOT
BRANCH   8  11
HETATM   11  C   UNL     1       8.432  12.579  22.862  0.00  0.00     0.260 C 
HETATM   12  O   UNL     1       7.929  11.850  23.722  0.00  0.00    -0.267 OA
HETATM   13  N   UNL     1       7.762  13.678  22.249  0.00  0.00    -0.318 N 
HETATM   14  C   UNL     1       8.188  14.351  21.012  0.00  0.00     0.159 C 
BRANCH  13  15
HETATM   15  C   UNL     1       6.416  14.003  22.683  0.00  0.00     0.037 A 
HETATM   16  C   UNL     1       6.099  15.255  23.210  0.00  0.00     0.032 A 
HETATM   17  C   UNL     1       4.828  15.521  23.737  0.00  0.00     0.031 A 
HETATM   18  C   UNL     1       3.808  14.563  23.753  0.00  0.00     0.030 A 
HETATM   19  C   UNL     1       4.097  13.350  23.125  0.00  0.00     0.031 A 
HETATM   20  C   UNL     1       5.371  13.073  22.600  0.00  0.00     0.032 A 
BRANCH  18  21
HETATM   21  N   UNL     1       2.604  14.813  24.373  0.00  0.00    -0.377 N 
HETATM   22  C   UNL     1       1.294  14.586  23.751  0.00  0.00     0.149 C 
HETATM   23  C   UNL     1       0.457  13.629  24.614  0.00  0.00     0.187 C 
HETATM   24  O   UNL     1       0.330  14.113  25.961  0.00  0.00    -0.388 OA
HETATM   25  C   UNL     1       1.628  14.233  26.565  0.00  0.00     0.187 C 
HETATM   26  C   UNL     1       2.541  15.201  25.793  0.00  0.00     0.149 C 
ENDBRANCH  18  21
ENDBRANCH  13  15
ENDBRANCH   8  11
BRANCH   9  27
HETATM   27  O   UNL     1       8.917  10.343  21.062  0.00  0.00    -0.360 OA
HETATM   28  H   UNL     1       8.829  10.570  20.107  0.00  0.00     0.217 HD
ENDBRANCH   9  27
BRANCH   1  29
HETATM   29  C   UNL     1      13.909  13.821  23.830  0.00  0.00     0.274 C 
HETATM   30  N   UNL     1      14.099  13.536  25.192  0.00  0.00    -0.351 N 
HETATM   31  C   UNL     1      14.083  12.188  25.741  0.00  0.00     0.153 C 
HETATM   32  O   UNL     1      14.075  14.960  23.398  0.00  0.00    -0.266 OA
BRANCH  30  33
HETATM   33  C   UNL     1      14.339  14.644  26.115  0.00  0.00     0.129 C 
BRANCH  33  34
HETATM   34  C   UNL     1      13.941  14.378  27.581  0.00  0.00    -0.005 C 
HETATM   35  C   UNL     1      14.754  15.205  28.576  0.00  0.00     0.011 C 
HETATM   36  C   UNL     1      12.446  14.567  27.828  0.00  0.00     0.011 C 
ENDBRANCH  33  34
ENDBRANCH  30  33
ENDBRANCH   1  29
TORSDOF 7
ENDMDL
MODEL 2
REMARK VINA RESULT:    -8.014      2.798      5.361
REMARK INTER + INTRA:         -12.424
REMARK INTER:                 -11.547
REMARK INTRA:                  -0.878
REMARK UNBOUND:                -1.365
REMARK  7 active torsions:
REMARK  status: ('A' for Active; 'I' for Inactive)
REMARK    1  A    between atoms: C_2  and  C_4 
REMARK    2  A    between atoms: C_4  and  N_5 
REMARK       I    between atoms: N_5  and  C_7 
REMARK    3  A    between atoms: C_7  and  C_9 
REMARK    4  A    between atoms: C_16  and  C_20 
REMARK    5  A    between atoms: C_17  and  O_19 
REMARK       I    between atoms: C_20  and  N_22 
REMARK    6  A    between atoms: N_22  and  C_24 
REMARK    7  A    between atoms: C_27  and  N_30 
ROOT
HETATM    1  C   UNL     1      10.747  13.235  23.556  0.00  0.00     0.157 A 
HETATM    2  N   UNL     1      11.900  13.625  24.136  0.00  0.00    -0.168 NA
HETATM    3  N   UNL     1      11.527  14.173  25.304  0.00  0.00    -0.277 N 
HETATM    4  H   UNL     1      12.245  14.543  25.914  0.00  0.00     0.189 HD
HETATM    5  C   UNL     1       9.636  13.593  24.377  0.00  0.00     0.029 A 
HETATM    6  C   UNL     1      10.179  14.154  25.521  0.00  0.00     0.065 A 
HETATM    7  C   UNL     1       8.237  13.477  24.268  0.00  0.00     0.036 C 
HETATM    8  C   UNL     1       7.426  13.805  25.352  0.00  0.00     0.066 C 
HETATM    9  C   UNL     1       8.019  14.442  26.462  0.00  0.00     0.083 C 
HETATM   10  C   UNL     1       9.404  14.613  26.584  0.00  0.00     0.069 C 
ENDROOT
BRANCH   8  11
HETATM   11  C   UNL     1       5.950  13.609  25.304  0.00  0.00     0.260 C 
HETATM   12  O   UNL     1       5.601  12.515  25.759  0.00  0.00    -0.267 OA
HETATM   13  N   UNL     1       5.058  14.558  24.726  0.00  0.00    -0.318 N 
HETATM   14  C   UNL     1       5.458  15.700  23.889  0.00  0.00     0.159 C 
BRANCH  13  15
HETATM   15  C   UNL     1       3.639  14.256  24.700  0.00  0.00     0.037 A 
HETATM   16  C   UNL     1       2.811  14.534  25.787  0.00  0.00     0.032 A 
HETATM   17  C   UNL     1       1.469  14.131  25.801  0.00  0.00     0.031 A 
HETATM   18  C   UNL     1       0.882  13.446  24.731  0.00  0.00     0.030 A 
HETATM   19  C   UNL     1       1.684  13.269  23.603  0.00  0.00     0.031 A 
HETATM   20  C   UNL     1       3.032  13.665  23.583  0.00  0.00     0.032 A 
BRANCH  18  21
HETATM   21  N   UNL     1      -0.406  12.966  24.812  0.00  0.00    -0.377 N 
HETATM   22  C   UNL     1      -1.338  12.909  23.679  0.00  0.00     0.149 C 
HETATM   23  C   UNL     1      -1.826  11.468  23.467  0.00  0.00     0.187 C 
HETATM   24  O   UNL     1      -2.411  10.930  24.665  0.00  0.00    -0.388 OA
HETATM   25  C   UNL     1      -1.440  10.917  25.724  0.00  0.00     0.187 C 
HETATM   26  C   UNL     1      -0.908  12.325  26.041  0.00  0.00     0.149 C 
ENDBRANCH  18  21
ENDBRANCH  13  15
ENDBRANCH   8  11
BRANCH   9  27
HETATM   27  O   UNL     1       7.288  15.004  27.481  0.00  0.00    -0.360 OA
HETATM   28  H   UNL     1       7.924  15.215  28.203  0.00  0.00     0.217 HD
ENDBRANCH   9  27
BRANCH   1  29
HETATM   29  C   UNL     1      10.640  12.540  22.250  0.00  0.00     0.274 C 
HETATM   30  N   UNL     1      10.630  13.293  21.064  0.00  0.00    -0.351 N 
HETATM   31  C   UNL     1      10.842  14.732  21.024  0.00  0.00     0.153 C 
HETATM   32  O   UNL     1      10.599  11.311  22.213  0.00  0.00    -0.266 OA
BRANCH  30  33
HETATM   33  C   UNL     1      10.409  12.602  19.794  0.00  0.00     0.129 C 
BRANCH  33  34
HETATM   34  C   UNL     1       8.968  12.667  19.252  0.00  0.00    -0.005 C 
HETATM   35  C   UNL     1       8.042  11.640  19.901  0.00  0.00     0.011 C 
HETATM   36  C   UNL     1       8.363  14.067  19.353  0.00  0.00     0.011 C 
ENDBRANCH  33  34
ENDBRANCH  30  33
ENDBRANCH   1  29
TORSDOF 7
ENDMDL
MODEL 3
REMARK VINA RESULT:    -8.011      1.660      1.952
REMARK INTER + INTRA:         -12.421
REMARK INTER:                 -11.860
REMARK INTRA:                  -0.560
REMARK UNBOUND:                -1.365
REMARK  7 active torsions:
REMARK  status: ('A' for Active; 'I' for Inactive)
REMARK    1  A    between atoms: C_2  and  C_4 
REMARK    2  A    between atoms: C_4  and  N_5 
REMARK       I    between atoms: N_5  and  C_7 
REMARK    3  A    between atoms: C_7  and  C_9 
REMARK    4  A    between atoms: C_16  and  C_20 
REMARK    5  A    between atoms: C_17  and  O_19 
REMARK       I    between atoms: C_20  and  N_22 
REMARK    6  A    between atoms: N_22  and  C_24 
REMARK    7  A    between atoms: C_27  and  N_30 
ROOT
HETATM    1  C   UNL     1      12.840  11.383  22.438  0.00  0.00     0.157 A 
HETATM    2  N   UNL     1      13.843  11.303  21.541  0.00  0.00    -0.168 NA
HETATM    3  N   UNL     1      13.284  11.649  20.370  0.00  0.00    -0.277 N 
HETATM    4  H   UNL     1      13.865  11.655  19.541  0.00  0.00     0.189 HD
HETATM    5  C   UNL     1      11.624  11.747  21.787  0.00  0.00     0.029 A 
HETATM    6  C   UNL     1      11.957  11.958  20.459  0.00  0.00     0.065 A 
HETATM    7  C   UNL     1      10.290  11.936  22.198  0.00  0.00     0.036 C 
HETATM    8  C   UNL     1       9.354  12.451  21.304  0.00  0.00     0.066 C 
HETATM    9  C   UNL     1       9.723  12.576  19.948  0.00  0.00     0.083 C 
HETATM   10  C   UNL     1      11.030  12.354  19.497  0.00  0.00     0.069 C 
ENDROOT
BRANCH   8  11
HETATM   11  C   UNL     1       7.958  12.749  21.729  0.00  0.00     0.260 C 
HETATM   12  O   UNL     1       7.139  11.950  21.264  0.00  0.00    -0.267 OA
HETATM   13  N   UNL     1       7.612  13.880  22.524  0.00  0.00    -0.318 N 
HETATM   14  C   UNL     1       8.497  15.020  22.813  0.00  0.00     0.159 C 
BRANCH  13  15
HETATM   15  C   UNL     1       6.216  14.099  22.856  0.00  0.00     0.037 A 
HETATM   16  C   UNL     1       5.725  15.369  23.159  0.00  0.00     0.032 A 
HETATM   17  C   UNL     1       4.407  15.554  23.594  0.00  0.00     0.031 A 
HETATM   18  C   UNL     1       3.509  14.490  23.738  0.00  0.00     0.030 A 
HETATM   19  C   UNL     1       3.972  13.238  23.329  0.00  0.00     0.031 A 
HETATM   20  C   UNL     1       5.295  13.043  22.896  0.00  0.00     0.032 A 
BRANCH  18  21
HETATM   21  N   UNL     1       2.254  14.683  24.270  0.00  0.00    -0.377 N 
HETATM   22  C   UNL     1       1.003  14.463  23.534  0.00  0.00     0.149 C 
HETATM   23  C   UNL     1       0.124  13.445  24.276  0.00  0.00     0.187 C 
HETATM   24  O   UNL     1      -0.122  13.854  25.632  0.00  0.00    -0.388 OA
HETATM   25  C   UNL     1       1.121  13.968  26.344  0.00  0.00     0.187 C 
HETATM   26  C   UNL     1       2.068  14.994  25.699  0.00  0.00     0.149 C 
ENDBRANCH  18  21
ENDBRANCH  13  15
ENDBRANCH   8  11
BRANCH   9  27
HETATM   27  O   UNL     1       8.820  12.860  18.951  0.00  0.00    -0.360 OA
HETATM   28  H   UNL     1       7.924  12.683  19.322  0.00  0.00     0.217 HD
ENDBRANCH   9  27
BRANCH   1  29
HETATM   29  C   UNL     1      12.972  11.123  23.892  0.00  0.00     0.274 C 
HETATM   30  N   UNL     1      13.184  12.198  24.771  0.00  0.00    -0.351 N 
HETATM   31  C   UNL     1      13.163  13.592  24.355  0.00  0.00     0.153 C 
HETATM   32  O   UNL     1      12.859   9.975  24.320  0.00  0.00    -0.266 OA
BRANCH  30  33
HETATM   33  C   UNL     1      13.426  11.913  26.185  0.00  0.00     0.129 C 
BRANCH  33  34
HETATM   34  C   UNL     1      12.209  12.099  27.112  0.00  0.00    -0.005 C 
HETATM   35  C   UNL     1      12.172  13.475  27.776  0.00  0.00     0.011 C 
HETATM   36  C   UNL     1      10.883  11.813  26.407  0.00  0.00     0.011 C 
ENDBRANCH  33  34
ENDBRANCH  30  33
ENDBRANCH   1  29
TORSDOF 7
ENDMDL
MODEL 4
REMARK VINA RESULT:    -7.954      2.198      4.440
REMARK INTER + INTRA:         -12.341
REMARK INTER:                 -11.372
REMARK INTRA:                  -0.968
REMARK UNBOUND:                -1.365
REMARK  7 active torsions:
REMARK  status: ('A' for Active; 'I' for Inactive)
REMARK    1  A    between atoms: C_2  and  C_4 
REMARK    2  A    between atoms: C_4  and  N_5 
REMARK       I    between atoms: N_5  and  C_7 
REMARK    3  A    between atoms: C_7  and  C_9 
REMARK    4  A    between atoms: C_16  and  C_20 
REMARK    5  A    between atoms: C_17  and  O_19 
REMARK       I    between atoms: C_20  and  N_22 
REMARK    6  A    between atoms: N_22  and  C_24 
REMARK    7  A    between atoms: C_27  and  N_30 
ROOT
HETATM    1  C   UNL     1      12.206  13.385  23.841  0.00  0.00     0.157 A 
HETATM    2  N   UNL     1      13.322  13.656  24.548  0.00  0.00    -0.168 NA
HETATM    3  N   UNL     1      12.877  14.185  25.700  0.00  0.00    -0.277 N 
HETATM    4  H   UNL     1      13.557  14.470  26.394  0.00  0.00     0.189 HD
HETATM    5  C   UNL     1      11.049  13.800  24.567  0.00  0.00     0.029 A 
HETATM    6  C   UNL     1      11.517  14.268  25.783  0.00  0.00     0.065 A 
HETATM    7  C   UNL     1       9.664  13.802  24.317  0.00  0.00     0.036 C 
HETATM    8  C   UNL     1       8.776  14.152  25.333  0.00  0.00     0.066 C 
HETATM    9  C   UNL     1       9.302  14.693  26.524  0.00  0.00     0.083 C 
HETATM   10  C   UNL     1      10.676  14.746  26.787  0.00  0.00     0.069 C 
ENDROOT
BRANCH   8  11
HETATM   11  C   UNL     1       7.301  14.079  25.133  0.00  0.00     0.260 C 
HETATM   12  O   UNL     1       6.738  13.394  25.992  0.00  0.00    -0.267 OA
HETATM   13  N   UNL     1       6.636  14.678  24.024  0.00  0.00    -0.318 N 
HETATM   14  C   UNL     1       7.298  15.209  22.821  0.00  0.00     0.159 C 
BRANCH  13  15
HETATM   15  C   UNL     1       5.199  14.521  23.903  0.00  0.00     0.037 A 
HETATM   16  C   UNL     1       4.313  15.472  24.409  0.00  0.00     0.032 A 
HETATM   17  C   UNL     1       2.929  15.256  24.396  0.00  0.00     0.031 A 
HETATM   18  C   UNL     1       2.357  14.092  23.869  0.00  0.00     0.030 A 
HETATM   19  C   UNL     1       3.241  13.195  23.265  0.00  0.00     0.031 A 
HETATM   20  C   UNL     1       4.631  13.401  23.279  0.00  0.00     0.032 A 
BRANCH  18  21
HETATM   21  N   UNL     1       1.004  13.855  23.965  0.00  0.00    -0.377 N 
HETATM   22  C   UNL     1       0.157  13.441  22.839  0.00  0.00     0.149 C 
HETATM   23  C   UNL     1      -0.550  12.118  23.167  0.00  0.00     0.187 C 
HETATM   24  O   UNL     1      -1.299  12.213  24.391  0.00  0.00    -0.388 OA
HETATM   25  C   UNL     1      -0.420  12.527  25.482  0.00  0.00     0.187 C 
HETATM   26  C   UNL     1       0.318  13.860  25.269  0.00  0.00     0.149 C 
ENDBRANCH  18  21
ENDBRANCH  13  15
ENDBRANCH   8  11
BRANCH   9  27
HETATM   27  O   UNL     1       8.517  15.272  27.493  0.00  0.00    -0.360 OA
HETATM   28  H   UNL     1       8.990  16.085  27.791  0.00  0.00     0.217 HD
ENDBRANCH   9  27
BRANCH   1  29
HETATM   29  C   UNL     1      12.177  12.754  22.499  0.00  0.00     0.274 C 
HETATM   30  N   UNL     1      12.368  11.367  22.381  0.00  0.00    -0.351 N 
HETATM   31  C   UNL     1      12.475  10.471  23.524  0.00  0.00     0.153 C 
HETATM   32  O   UNL     1      11.951  13.443  21.505  0.00  0.00    -0.266 OA
BRANCH  30  33
HETATM   33  C   UNL     1      12.452  10.779  21.045  0.00  0.00     0.129 C 
BRANCH  33  34
HETATM   34  C   UNL     1      13.881  10.533  20.523  0.00  0.00    -0.005 C 
HETATM   35  C   UNL     1      14.055   9.150  19.897  0.00  0.00     0.011 C 
HETATM   36  C   UNL     1      14.348  11.618  19.553  0.00  0.00     0.011 C 
ENDBRANCH  33  34
ENDBRANCH  30  33
ENDBRANCH   1  29
TORSDOF 7
ENDMDL
MODEL 5
REMARK VINA RESULT:    -7.942      1.683      2.066
REMARK INTER + INTRA:         -12.324
REMARK INTER:                 -11.793
REMARK INTRA:                  -0.531
REMARK UNBOUND:                -1.365
REMARK  7 active torsions:
REMARK  status: ('A' for Active; 'I' for Inactive)
REMARK    1  A    between atoms: C_2  and  C_4 
REMARK    2  A    between atoms: C_4  and  N_5 
REMARK       I    between atoms: N_5  and  C_7 
REMARK    3  A    between atoms: C_7  and  C_9 
REMARK    4  A    between atoms: C_16  and  C_20 
REMARK    5  A    between atoms: C_17  and  O_19 
REMARK       I    between atoms: C_20  and  N_22 
REMARK    6  A    between atoms: N_22  and  C_24 
REMARK    7  A    between atoms: C_27  and  N_30 
ROOT
HETATM    1  C   UNL     1      12.437  13.572  22.211  0.00  0.00     0.157 A 
HETATM    2  N   UNL     1      13.363  13.371  21.252  0.00  0.00    -0.168 NA
HETATM    3  N   UNL     1      12.672  12.895  20.203  0.00  0.00    -0.277 N 
HETATM    4  H   UNL     1      13.177  12.667  19.356  0.00  0.00     0.189 HD
HETATM    5  C   UNL     1      11.150  13.168  21.746  0.00  0.00     0.029 A 
HETATM    6  C   UNL     1      11.330  12.781  20.429  0.00  0.00     0.065 A 
HETATM    7  C   UNL     1       9.859  13.114  22.306  0.00  0.00     0.036 C 
HETATM    8  C   UNL     1       8.766  12.799  21.502  0.00  0.00     0.066 C 
HETATM    9  C   UNL     1       9.010  12.339  20.191  0.00  0.00     0.083 C 
HETATM   10  C   UNL     1      10.287  12.338  19.617  0.00  0.00     0.069 C 
ENDROOT
BRANCH   8  11
HETATM   11  C   UNL     1       7.376  12.821  22.039  0.00  0.00     0.260 C 
HETATM   12  O   UNL     1       6.846  11.706  22.031  0.00  0.00    -0.267 OA
HETATM   13  N   UNL     1       6.719  14.019  22.445  0.00  0.00    -0.318 N 
HETATM   14  C   UNL     1       7.189  15.385  22.162  0.00  0.00     0.159 C 
BRANCH  13  15
HETATM   15  C   UNL     1       5.351  13.937  22.923  0.00  0.00     0.037 A 
HETATM   16  C   UNL     1       4.630  12.743  22.881  0.00  0.00     0.032 A 
HETATM   17  C   UNL     1       3.275  12.700  23.232  0.00  0.00     0.031 A 
HETATM   18  C   UNL     1       2.574  13.834  23.654  0.00  0.00     0.030 A 
HETATM   19  C   UNL     1       3.327  15.001  23.800  0.00  0.00     0.031 A 
HETATM   20  C   UNL     1       4.686  15.055  23.445  0.00  0.00     0.032 A 
BRANCH  18  21
HETATM   21  N   UNL     1       1.218  13.789  23.890  0.00  0.00    -0.377 N 
HETATM   22  C   UNL     1       0.211  13.504  22.861  0.00  0.00     0.149 C 
HETATM   23  C   UNL     1      -0.637  12.291  23.271  0.00  0.00     0.187 C 
HETATM   24  O   UNL     1      -1.237  12.484  24.563  0.00  0.00    -0.388 OA
HETATM   25  C   UNL     1      -0.216  12.666  25.557  0.00  0.00     0.187 C 
HETATM   26  C   UNL     1       0.675  13.883  25.257  0.00  0.00     0.149 C 
ENDBRANCH  18  21
ENDBRANCH  13  15
ENDBRANCH   8  11
BRANCH   9  27
HETATM   27  O   UNL     1       8.031  11.794  19.395  0.00  0.00    -0.360 OA
HETATM   28  H   UNL     1       7.245  12.385  19.471  0.00  0.00     0.217 HD
ENDBRANCH   9  27
BRANCH   1  29
HETATM   29  C   UNL     1      12.711  14.126  23.560  0.00  0.00     0.274 C 
HETATM   30  N   UNL     1      12.799  13.257  24.660  0.00  0.00    -0.351 N 
HETATM   31  C   UNL     1      12.756  11.807  24.544  0.00  0.00     0.153 C 
HETATM   32  O   UNL     1      12.895  15.334  23.697  0.00  0.00    -0.266 OA
BRANCH  30  33
HETATM   33  C   UNL     1      12.954  13.829  25.996  0.00  0.00     0.129 C 
BRANCH  33  34
HETATM   34  C   UNL     1      11.684  13.815  26.870  0.00  0.00    -0.005 C 
HETATM   35  C   UNL     1      11.854  14.588  28.177  0.00  0.00     0.011 C 
HETATM   36  C   UNL     1      10.447  14.305  26.119  0.00  0.00     0.011 C 
ENDBRANCH  33  34
ENDBRANCH  30  33
ENDBRANCH   1  29
TORSDOF 7
ENDMDL
MODEL 6
REMARK VINA RESULT:    -7.925      2.135      4.477
REMARK INTER + INTRA:         -12.301
REMARK INTER:                 -11.247
REMARK INTRA:                  -1.054
REMARK UNBOUND:                -1.365
REMARK  7 active torsions:
REMARK  status: ('A' for Active; 'I' for Inactive)
REMARK    1  A    between atoms: C_2  and  C_4 
REMARK    2  A    between atoms: C_4  and  N_5 
REMARK       I    between atoms: N_5  and  C_7 
REMARK    3  A    between atoms: C_7  and  C_9 
REMARK    4  A    between atoms: C_16  and  C_20 
REMARK    5  A    between atoms: C_17  and  O_19 
REMARK       I    between atoms: C_20  and  N_22 
REMARK    6  A    between atoms: N_22  and  C_24 
REMARK    7  A    between atoms: C_27  and  N_30 
ROOT
HETATM    1  C   UNL     1      12.520  12.337  24.717  0.00  0.00     0.157 A 
HETATM    2  N   UNL     1      13.642  12.647  25.396  0.00  0.00    -0.168 NA
HETATM    3  N   UNL     1      13.238  13.494  26.357  0.00  0.00    -0.277 N 
HETATM    4  H   UNL     1      13.930  13.865  26.996  0.00  0.00     0.189 HD
HETATM    5  C   UNL     1      11.405  13.048  25.255  0.00  0.00     0.029 A 
HETATM    6  C   UNL     1      11.897  13.749  26.343  0.00  0.00     0.065 A 
HETATM    7  C   UNL     1      10.037  13.145  24.937  0.00  0.00     0.036 C 
HETATM    8  C   UNL     1       9.174  13.835  25.786  0.00  0.00     0.066 C 
HETATM    9  C   UNL     1       9.734  14.594  26.835  0.00  0.00     0.083 C 
HETATM   10  C   UNL     1      11.097  14.554  27.152  0.00  0.00     0.069 C 
ENDROOT
BRANCH   8  11
HETATM   11  C   UNL     1       7.707  13.883  25.530  0.00  0.00     0.260 C 
HETATM   12  O   UNL     1       7.059  13.246  26.365  0.00  0.00    -0.267 OA
HETATM   13  N   UNL     1       7.136  14.534  24.398  0.00  0.00    -0.318 N 
HETATM   14  C   UNL     1       7.885  15.009  23.223  0.00  0.00     0.159 C 
BRANCH  13  15
HETATM   15  C   UNL     1       5.696  14.494  24.222  0.00  0.00     0.037 A 
HETATM   16  C   UNL     1       4.867  15.484  24.747  0.00  0.00     0.032 A 
HETATM   17  C   UNL     1       3.472  15.376  24.677  0.00  0.00     0.031 A 
HETATM   18  C   UNL     1       2.834  14.287  24.072  0.00  0.00     0.030 A 
HETATM   19  C   UNL     1       3.669  13.356  23.452  0.00  0.00     0.031 A 
HETATM   20  C   UNL     1       5.069  13.454  23.522  0.00  0.00     0.032 A 
BRANCH  18  21
HETATM   21  N   UNL     1       1.464  14.151  24.111  0.00  0.00    -0.377 N 
HETATM   22  C   UNL     1       0.607  14.087  22.921  0.00  0.00     0.149 C 
HETATM   23  C   UNL     1      -0.214  12.789  22.928  0.00  0.00     0.187 C 
HETATM   24  O   UNL     1      -0.975  12.657  24.140  0.00  0.00    -0.388 OA
HETATM   25  C   UNL     1      -0.094  12.630  25.274  0.00  0.00     0.187 C 
HETATM   26  C   UNL     1       0.756  13.907  25.380  0.00  0.00     0.149 C 
ENDBRANCH  18  21
ENDBRANCH  13  15
ENDBRANCH   8  11
BRANCH   9  27
HETATM   27  O   UNL     1       9.003  15.481  27.589  0.00  0.00    -0.360 OA
HETATM   28  H   UNL     1       8.546  16.082  26.954  0.00  0.00     0.217 HD
ENDBRANCH   9  27
BRANCH   1  29
HETATM   29  C   UNL     1      12.447  11.398  23.570  0.00  0.00     0.274 C 
HETATM   30  N   UNL     1      12.338  11.907  22.265  0.00  0.00    -0.351 N 
HETATM   31  C   UNL     1      12.413  13.325  21.947  0.00  0.00     0.153 C 
HETATM   32  O   UNL     1      12.520  10.187  23.768  0.00  0.00    -0.266 OA
BRANCH  30  33
HETATM   33  C   UNL     1      12.152  10.970  21.159  0.00  0.00     0.129 C 
BRANCH  33  34
HETATM   34  C   UNL     1      10.718  10.890  20.598  0.00  0.00    -0.005 C 
HETATM   35  C   UNL     1       9.655  10.808  21.693  0.00  0.00     0.011 C 
HETATM   36  C   UNL     1      10.399  12.030  19.632  0.00  0.00     0.011 C 
ENDBRANCH  33  34
ENDBRANCH  30  33
ENDBRANCH   1  29
TORSDOF 7
ENDMDL
MODEL 7
REMARK VINA RESULT:    -7.556      3.997     11.175
REMARK INTER + INTRA:         -11.793
REMARK INTER:                 -10.486
REMARK INTRA:                  -1.307
REMARK UNBOUND:                -1.365
REMARK  7 active torsions:
REMARK  status: ('A' for Active; 'I' for Inactive)
REMARK    1  A    between atoms: C_2  and  C_4 
REMARK    2  A    between atoms: C_4  and  N_5 
REMARK       I    between atoms: N_5  and  C_7 
REMARK    3  A    between atoms: C_7  and  C_9 
REMARK    4  A    between atoms: C_16  and  C_20 
REMARK    5  A    between atoms: C_17  and  O_19 
REMARK       I    between atoms: C_20  and  N_22 
REMARK    6  A    between atoms: N_22  and  C_24 
REMARK    7  A    between atoms: C_27  and  N_30 
ROOT
HETATM    1  C   UNL     1      -0.424  10.888  24.456  0.00  0.00     0.157 A 
HETATM    2  N   UNL     1      -1.577  11.418  24.000  0.00  0.00    -0.168 NA
HETATM    3  N   UNL     1      -1.260  12.677  23.653  0.00  0.00    -0.277 N 
HETATM    4  H   UNL     1      -1.990  13.273  23.281  0.00  0.00     0.189 HD
HETATM    5  C   UNL     1       0.616  11.865  24.424  0.00  0.00     0.029 A 
HETATM    6  C   UNL     1       0.052  12.995  23.855  0.00  0.00     0.065 A 
HETATM    7  C   UNL     1       1.972  11.890  24.801  0.00  0.00     0.036 C 
HETATM    8  C   UNL     1       2.760  12.994  24.485  0.00  0.00     0.066 C 
HETATM    9  C   UNL     1       2.124  14.146  23.976  0.00  0.00     0.083 C 
HETATM   10  C   UNL     1       0.767  14.170  23.631  0.00  0.00     0.069 C 
ENDROOT
BRANCH   8  11
HETATM   11  C   UNL     1       4.219  13.019  24.787  0.00  0.00     0.260 C 
HETATM   12  O   UNL     1       4.482  13.661  25.808  0.00  0.00    -0.267 OA
HETATM   13  N   UNL     1       5.198  12.424  23.939  0.00  0.00    -0.318 N 
HETATM   14  C   UNL     1       4.959  11.948  22.567  0.00  0.00     0.159 C 
BRANCH  13  15
HETATM   15  C   UNL     1       6.598  12.532  24.307  0.00  0.00     0.037 A 
HETATM   16  C   UNL     1       7.193  11.636  25.194  0.00  0.00     0.032 A 
HETATM   17  C   UNL     1       8.510  11.817  25.636  0.00  0.00     0.031 A 
HETATM   18  C   UNL     1       9.303  12.888  25.208  0.00  0.00     0.030 A 
HETATM   19  C   UNL     1       8.740  13.718  24.237  0.00  0.00     0.031 A 
HETATM   20  C   UNL     1       7.418  13.546  23.792  0.00  0.00     0.032 A 
BRANCH  18  21
HETATM   21  N   UNL     1      10.555  13.106  25.739  0.00  0.00    -0.377 N 
HETATM   22  C   UNL     1      11.026  14.405  26.235  0.00  0.00     0.149 C 
HETATM   23  C   UNL     1      11.466  14.283  27.702  0.00  0.00     0.187 C 
HETATM   24  O   UNL     1      12.460  13.258  27.868  0.00  0.00    -0.388 OA
HETATM   25  C   UNL     1      11.929  11.987  27.459  0.00  0.00     0.187 C 
HETATM   26  C   UNL     1      11.486  11.990  25.986  0.00  0.00     0.149 C 
ENDBRANCH  18  21
ENDBRANCH  13  15
ENDBRANCH   8  11
BRANCH   9  27
HETATM   27  O   UNL     1       2.764  15.355  23.841  0.00  0.00    -0.360 OA
HETATM   28  H   UNL     1       3.290  15.305  23.008  0.00  0.00     0.217 HD
ENDBRANCH   9  27
BRANCH   1  29
HETATM   29  C   UNL     1      -0.255   9.492  24.930  0.00  0.00     0.274 C 
HETATM   30  N   UNL     1      -0.638   9.155  26.239  0.00  0.00    -0.351 N 
HETATM   31  C   UNL     1      -1.314  10.076  27.141  0.00  0.00     0.153 C 
HETATM   32  O   UNL     1       0.183   8.636  24.164  0.00  0.00    -0.266 OA
BRANCH  30  33
HETATM   33  C   UNL     1      -0.359   7.806  26.728  0.00  0.00     0.129 C 
BRANCH  33  34
HETATM   34  C   UNL     1      -0.708   7.557  28.209  0.00  0.00    -0.005 C 
HETATM   35  C   UNL     1      -1.661   6.378  28.404  0.00  0.00     0.011 C 
HETATM   36  C   UNL     1       0.532   7.389  29.086  0.00  0.00     0.011 C 
ENDBRANCH  33  34
ENDBRANCH  30  33
ENDBRANCH   1  29
TORSDOF 7
ENDMDL
MODEL 8
REMARK VINA RESULT:    -7.405      5.784      8.067
REMARK INTER + INTRA:         -11.583
REMARK INTER:                 -10.218
REMARK INTRA:                  -1.365
REMARK UNBOUND:                -1.365
REMARK  7 active torsions:
REMARK  status: ('A' for Active; 'I' for Inactive)
REMARK    1  A    between atoms: C_2  and  C_4 
REMARK    2  A    between atoms: C_4  and  N_5 
REMARK       I    between atoms: N_5  and  C_7 
REMARK    3  A    between atoms: C_7  and  C_9 
REMARK    4  A    between atoms: C_16  and  C_20 
REMARK    5  A    between atoms: C_17  and  O_19 
REMARK       I    between atoms: C_20  and  N_22 
REMARK    6  A    between atoms: N_22  and  C_24 
REMARK    7  A    between atoms: C_27  and  N_30 
ROOT
HETATM    1  C   UNL     1       8.164  13.996  22.672  0.00  0.00     0.157 A 
HETATM    2  N   UNL     1       8.003  15.063  23.480  0.00  0.00    -0.168 NA
HETATM    3  N   UNL     1       6.698  15.058  23.797  0.00  0.00    -0.277 N 
HETATM    4  H   UNL     1       6.346  15.788  24.405  0.00  0.00     0.189 HD
HETATM    5  C   UNL     1       6.912  13.345  22.458  0.00  0.00     0.029 A 
HETATM    6  C   UNL     1       5.995  14.030  23.238  0.00  0.00     0.065 A 
HETATM    7  C   UNL     1       6.479  12.241  21.701  0.00  0.00     0.036 C 
HETATM    8  C   UNL     1       5.174  11.771  21.840  0.00  0.00     0.066 C 
HETATM    9  C   UNL     1       4.261  12.546  22.585  0.00  0.00     0.083 C 
HETATM   10  C   UNL     1       4.649  13.676  23.315  0.00  0.00     0.069 C 
ENDROOT
BRANCH   8  11
HETATM   11  C   UNL     1       4.708  10.551  21.123  0.00  0.00     0.260 C 
HETATM   12  O   UNL     1       4.037  10.815  20.121  0.00  0.00    -0.267 OA
HETATM   13  N   UNL     1       4.955   9.229  21.597  0.00  0.00    -0.318 N 
HETATM   14  C   UNL     1       5.454   8.886  22.939  0.00  0.00     0.159 C 
BRANCH  13  15
HETATM   15  C   UNL     1       4.429   8.107  20.842  0.00  0.00     0.037 A 
HETATM   16  C   UNL     1       4.924   7.777  19.581  0.00  0.00     0.032 A 
HETATM   17  C   UNL     1       4.331   6.770  18.808  0.00  0.00     0.031 A 
HETATM   18  C   UNL     1       3.228   6.033  19.256  0.00  0.00     0.030 A 
HETATM   19  C   UNL     1       2.808   6.293  20.562  0.00  0.00     0.031 A 
HETATM   20  C   UNL     1       3.393   7.305  21.341  0.00  0.00     0.032 A 
BRANCH  18  21
HETATM   21  N   UNL     1       2.597   5.124  18.437  0.00  0.00    -0.377 N 
HETATM   22  C   UNL     1       2.918   3.692  18.392  0.00  0.00     0.149 C 
HETATM   23  C   UNL     1       1.665   2.858  18.694  0.00  0.00     0.187 C 
HETATM   24  O   UNL     1       0.587   3.190  17.802  0.00  0.00    -0.388 OA
HETATM   25  C   UNL     1       0.240   4.577  17.944  0.00  0.00     0.187 C 
HETATM   26  C   UNL     1       1.425   5.507  17.630  0.00  0.00     0.149 C 
ENDBRANCH  18  21
ENDBRANCH  13  15
ENDBRANCH   8  11
BRANCH   9  27
HETATM   27  O   UNL     1       2.909  12.297  22.603  0.00  0.00    -0.360 OA
HETATM   28  H   UNL     1       2.618  12.382  23.541  0.00  0.00     0.217 HD
ENDBRANCH   9  27
BRANCH   1  29
HETATM   29  C   UNL     1       9.453  13.558  22.081  0.00  0.00     0.274 C 
HETATM   30  N   UNL     1      10.251  12.630  22.770  0.00  0.00    -0.351 N 
HETATM   31  C   UNL     1       9.832  11.964  23.995  0.00  0.00     0.153 C 
HETATM   32  O   UNL     1       9.794  13.983  20.979  0.00  0.00    -0.266 OA
BRANCH  30  33
HETATM   33  C   UNL     1      11.568  12.298  22.231  0.00  0.00     0.129 C 
BRANCH  33  34
HETATM   34  C   UNL     1      11.753  10.828  21.805  0.00  0.00    -0.005 C 
HETATM   35  C   UNL     1      10.708  10.368  20.790  0.00  0.00     0.011 C 
HETATM   36  C   UNL     1      13.161  10.539  21.286  0.00  0.00     0.011 C 
ENDBRANCH  33  34
ENDBRANCH  30  33
ENDBRANCH   1  29
TORSDOF 7
ENDMDL
MODEL 9
REMARK VINA RESULT:    -7.380      3.928     11.389
REMARK INTER + INTRA:         -11.549
REMARK INTER:                 -10.346
REMARK INTRA:                  -1.203
REMARK UNBOUND:                -1.365
REMARK  7 active torsions:
REMARK  status: ('A' for Active; 'I' for Inactive)
REMARK    1  A    between atoms: C_2  and  C_4 
REMARK    2  A    between atoms: C_4  and  N_5 
REMARK       I    between atoms: N_5  and  C_7 
REMARK    3  A    between atoms: C_7  and  C_9 
REMARK    4  A    between atoms: C_16  and  C_20 
REMARK    5  A    between atoms: C_17  and  O_19 
REMARK       I    between atoms: C_20  and  N_22 
REMARK    6  A    between atoms: N_22  and  C_24 
REMARK    7  A    between atoms: C_27  and  N_30 
ROOT
HETATM    1  C   UNL     1      -0.604  10.944  24.742  0.00  0.00     0.157 A 
HETATM    2  N   UNL     1      -1.788  11.559  24.545  0.00  0.00    -0.168 NA
HETATM    3  N   UNL     1      -1.466  12.818  24.204  0.00  0.00    -0.277 N 
HETATM    4  H   UNL     1      -2.215  13.471  24.010  0.00  0.00     0.189 HD
HETATM    5  C   UNL     1       0.469  11.866  24.555  0.00  0.00     0.029 A 
HETATM    6  C   UNL     1      -0.122  13.055  24.161  0.00  0.00     0.065 A 
HETATM    7  C   UNL     1       1.871  11.799  24.661  0.00  0.00     0.036 C 
HETATM    8  C   UNL     1       2.651  12.878  24.251  0.00  0.00     0.066 C 
HETATM    9  C   UNL     1       2.002  14.089  23.932  0.00  0.00     0.083 C 
HETATM   10  C   UNL     1       0.608  14.203  23.859  0.00  0.00     0.069 C 
ENDROOT
BRANCH   8  11
HETATM   11  C   UNL     1       4.139  12.809  24.264  0.00  0.00     0.260 C 
HETATM   12  O   UNL     1       4.638  13.471  25.179  0.00  0.00    -0.267 OA
HETATM   13  N   UNL     1       4.894  12.112  23.277  0.00  0.00    -0.318 N 
HETATM   14  C   UNL     1       4.361  11.599  22.004  0.00  0.00     0.159 C 
BRANCH  13  15
HETATM   15  C   UNL     1       6.342  12.133  23.361  0.00  0.00     0.037 A 
HETATM   16  C   UNL     1       7.102  13.084  22.681  0.00  0.00     0.032 A 
HETATM   17  C   UNL     1       8.501  13.025  22.671  0.00  0.00     0.031 A 
HETATM   18  C   UNL     1       9.214  12.028  23.346  0.00  0.00     0.030 A 
HETATM   19  C   UNL     1       8.453  11.145  24.114  0.00  0.00     0.031 A 
HETATM   20  C   UNL     1       7.049  11.194  24.125  0.00  0.00     0.032 A 
BRANCH  18  21
HETATM   21  N   UNL     1      10.583  11.928  23.232  0.00  0.00    -0.377 N 
HETATM   22  C   UNL     1      11.496  11.780  24.372  0.00  0.00     0.149 C 
HETATM   23  C   UNL     1      12.342  10.508  24.212  0.00  0.00     0.187 C 
HETATM   24  O   UNL     1      13.047  10.502  22.959  0.00  0.00    -0.388 OA
HETATM   25  C   UNL     1      12.114  10.553  21.869  0.00  0.00     0.187 C 
HETATM   26  C   UNL     1      11.235  11.814  21.915  0.00  0.00     0.149 C 
ENDBRANCH  18  21
ENDBRANCH  13  15
ENDBRANCH   8  11
BRANCH   9  27
HETATM   27  O   UNL     1       2.678  15.270  23.732  0.00  0.00    -0.360 OA
HETATM   28  H   UNL     1       2.829  15.348  22.761  0.00  0.00     0.217 HD
ENDBRANCH   9  27
BRANCH   1  29
HETATM   29  C   UNL     1      -0.434   9.516  25.107  0.00  0.00     0.274 C 
HETATM   30  N   UNL     1      -0.745   9.093  26.410  0.00  0.00    -0.351 N 
HETATM   31  C   UNL     1      -1.350   9.958  27.413  0.00  0.00     0.153 C 
HETATM   32  O   UNL     1      -0.059   8.709  24.258  0.00  0.00    -0.266 OA
BRANCH  30  33
HETATM   33  C   UNL     1      -0.464   7.709  26.786  0.00  0.00     0.129 C 
BRANCH  33  34
HETATM   34  C   UNL     1      -0.617   7.390  28.287  0.00  0.00    -0.005 C 
HETATM   35  C   UNL     1      -1.702   6.350  28.565  0.00  0.00     0.011 C 
HETATM   36  C   UNL     1       0.701   6.971  28.936  0.00  0.00     0.011 C 
ENDBRANCH  33  34
ENDBRANCH  30  33
ENDBRANCH   1  29
TORSDOF 7
ENDMDL
