MODEL 1
REMARK VINA RESULT:    -7.717      0.000      0.000
REMARK INTER + INTRA:          -9.960
REMARK INTER:                  -9.068
REMARK INTRA:                  -0.892
REMARK UNBOUND:                -0.889
REMARK  4 active torsions:
REMARK  status: ('A' for Active; 'I' for Inactive)
REMARK    1  A    between atoms: O_1  and  C_2 
REMARK    2  A    between atoms: C_5  and  C_6 
REMARK    3  A    between atoms: N_12  and  C_13 
REMARK    4  A    between atoms: C_20  and  O_21 
ROOT
HETATM    1  C   UNL     1      -0.941  10.846  26.436  0.00  0.00     0.170 A 
HETATM    2  N   UNL     1      -1.573  11.286  27.498  0.00  0.00    -0.153 NA
HETATM    3  N   UNL     1      -1.123  10.532  28.521  0.00  0.00    -0.251 N 
HETATM    4  H   UNL     1      -1.380  10.724  29.488  0.00  0.00     0.191 HD
HETATM    5  C   UNL     1      -0.152   9.644  28.092  0.00  0.00     0.201 A 
HETATM    6  S   UNL     1       0.704   8.737  29.193  0.00  0.00    -0.038 SA
HETATM    7  N   UNL     1      -0.071   9.802  26.709  0.00  0.00    -0.266 N 
ENDROOT
BRANCH   1   8
HETATM    8  C   UNL     1      -1.208  11.510  25.133  0.00  0.00     0.045 C 
HETATM    9  C   UNL     1      -0.137  12.271  24.617  0.00  0.00     0.021 C 
HETATM   10  C   UNL     1      -0.202  12.846  23.347  0.00  0.00     0.037 C 
HETATM   11  C   UNL     1      -1.334  12.647  22.575  0.00  0.00     0.068 C 
HETATM   12  C   UNL     1      -2.435  11.970  23.093  0.00  0.00     0.074 C 
HETATM   13  C   UNL     1      -2.393  11.459  24.395  0.00  0.00     0.082 C 
BRANCH  11  14
HETATM   14  O   UNL     1      -1.406  13.108  21.293  0.00  0.00    -0.361 OA
HETATM   15  H   UNL     1      -2.341  13.198  21.045  0.00  0.00     0.217 HD
ENDBRANCH  11  14
BRANCH  13  16
HETATM   16  O   UNL     1      -3.571  10.947  24.860  0.00  0.00    -0.360 OA
HETATM   17  H   UNL     1      -3.470  10.717  25.799  0.00  0.00     0.217 HD
ENDBRANCH  13  16
ENDBRANCH   1   8
BRANCH   7  18
HETATM   18  C   UNL     1       0.766   9.044  25.833  0.00  0.00     0.082 A 
HETATM   19  C   UNL     1       2.015   9.559  25.430  0.00  0.00     0.033 A 
HETATM   20  C   UNL     1       2.924   8.793  24.692  0.00  0.00     0.002 A 
HETATM   21  C   UNL     1       2.621   7.476  24.368  0.00  0.00     0.003 A 
HETATM   22  C   UNL     1       1.376   6.960  24.714  0.00  0.00     0.044 A 
HETATM   23  C   UNL     1       0.450   7.755  25.394  0.00  0.00     0.143 A 
HETATM   24  F   UNL     1      -0.775   7.248  25.592  0.00  0.00    -0.204 F 
ENDBRANCH   7  18
TORSDOF 4
ENDMDL
MODEL 2
REMARK VINA RESULT:    -6.704      3.422      5.201
REMARK INTER + INTRA:          -8.769
REMARK INTER:                  -8.232
REMARK INTRA:                  -0.537
REMARK UNBOUND:                -0.889
REMARK  4 active torsions:
REMARK  status: ('A' for Active; 'I' for Inactive)
REMARK    1  A    between atoms: O_1  and  C_2 
REMARK    2  A    between atoms: C_5  and  C_6 
REMARK    3  A    between atoms: N_12  and  C_13 
REMARK    4  A    between atoms: C_20  and  O_21 
ROOT
HETATM    1  C   UNL     1      -1.663  10.638  25.782  0.00  0.00     0.170 A 
HETATM    2  N   UNL     1      -2.943  10.831  25.572  0.00  0.00    -0.153 NA
HETATM    3  N   UNL     1      -3.019  11.472  24.389  0.00  0.00    -0.251 N 
HETATM    4  H   UNL     1      -3.910  11.664  23.933  0.00  0.00     0.191 HD
HETATM    5  C   UNL     1      -1.764  11.631  23.829  0.00  0.00     0.201 A 
HETATM    6  S   UNL     1      -1.600  12.215  22.280  0.00  0.00    -0.038 SA
HETATM    7  N   UNL     1      -0.859  11.139  24.769  0.00  0.00    -0.266 N 
ENDROOT
BRANCH   1   8
HETATM    8  C   UNL     1      -1.254   9.916  27.015  0.00  0.00     0.045 C 
HETATM    9  C   UNL     1      -0.790   8.598  26.814  0.00  0.00     0.021 C 
HETATM   10  C   UNL     1      -0.258   7.848  27.863  0.00  0.00     0.037 C 
HETATM   11  C   UNL     1      -0.168   8.419  29.121  0.00  0.00     0.068 C 
HETATM   12  C   UNL     1      -0.692   9.686  29.363  0.00  0.00     0.074 C 
HETATM   13  C   UNL     1      -1.292  10.406  28.323  0.00  0.00     0.082 C 
BRANCH  11  14
HETATM   14  O   UNL     1       0.431   7.761  30.155  0.00  0.00    -0.361 OA
HETATM   15  H   UNL     1       1.381   7.682  29.967  0.00  0.00     0.217 HD
ENDBRANCH  11  14
BRANCH  13  16
HETATM   16  O   UNL     1      -1.907  11.567  28.696  0.00  0.00    -0.360 OA
HETATM   17  H   UNL     1      -1.976  11.595  29.665  0.00  0.00     0.217 HD
ENDBRANCH  13  16
ENDBRANCH   1   8
BRANCH   7  18
HETATM   18  C   UNL     1       0.564  11.151  24.641  0.00  0.00     0.082 A 
HETATM   19  C   UNL     1       1.283   9.940  24.641  0.00  0.00     0.033 A 
HETATM   20  C   UNL     1       2.657   9.898  24.376  0.00  0.00     0.002 A 
HETATM   21  C   UNL     1       3.341  11.068  24.066  0.00  0.00     0.003 A 
HETATM   22  C   UNL     1       2.663  12.282  24.106  0.00  0.00     0.044 A 
HETATM   23  C   UNL     1       1.306  12.319  24.436  0.00  0.00     0.143 A 
HETATM   24  F   UNL     1       0.735  13.524  24.579  0.00  0.00    -0.204 F 
ENDBRANCH   7  18
TORSDOF 4
ENDMDL
MODEL 3
REMARK VINA RESULT:    -6.679      2.708      4.828
REMARK INTER + INTRA:          -8.739
REMARK INTER:                  -7.912
REMARK INTRA:                  -0.827
REMARK UNBOUND:                -0.889
REMARK  4 active torsions:
REMARK  status: ('A' for Active; 'I' for Inactive)
REMARK    1  A    between atoms: O_1  and  C_2 
REMARK    2  A    between atoms: C_5  and  C_6 
REMARK    3  A    between atoms: N_12  and  C_13 
REMARK    4  A    between atoms: C_20  and  O_21 
ROOT
HETATM    1  C   UNL     1       1.312   9.163  25.963  0.00  0.00     0.170 A 
HETATM    2  N   UNL     1       1.495   8.484  27.070  0.00  0.00    -0.153 NA
HETATM    3  N   UNL     1       0.578   8.958  27.937  0.00  0.00    -0.251 N 
HETATM    4  H   UNL     1       0.433   8.538  28.854  0.00  0.00     0.191 HD
HETATM    5  C   UNL     1      -0.224   9.912  27.337  0.00  0.00     0.201 A 
HETATM    6  S   UNL     1      -1.558  10.510  28.131  0.00  0.00    -0.038 SA
HETATM    7  N   UNL     1       0.292  10.097  26.055  0.00  0.00    -0.266 N 
ENDROOT
BRANCH   1   8
HETATM    8  C   UNL     1       2.169   8.842  24.791  0.00  0.00     0.045 C 
HETATM    9  C   UNL     1       3.016   9.887  24.363  0.00  0.00     0.021 C 
HETATM   10  C   UNL     1       3.962   9.688  23.356  0.00  0.00     0.037 C 
HETATM   11  C   UNL     1       4.080   8.433  22.782  0.00  0.00     0.068 C 
HETATM   12  C   UNL     1       3.202   7.410  23.130  0.00  0.00     0.074 C 
HETATM   13  C   UNL     1       2.207   7.636  24.088  0.00  0.00     0.082 C 
BRANCH  11  14
HETATM   14  O   UNL     1       5.052   8.165  21.863  0.00  0.00    -0.361 OA
HETATM   15  H   UNL     1       4.726   8.413  20.982  0.00  0.00     0.217 HD
ENDBRANCH  11  14
BRANCH  13  16
HETATM   16  O   UNL     1       1.307   6.620  24.246  0.00  0.00    -0.360 OA
HETATM   17  H   UNL     1       1.357   6.291  25.160  0.00  0.00     0.217 HD
ENDBRANCH  13  16
ENDBRANCH   1   8
BRANCH   7  18
HETATM   18  C   UNL     1      -0.190  11.036  25.092  0.00  0.00     0.082 A 
HETATM   19  C   UNL     1       0.512  12.237  24.865  0.00  0.00     0.033 A 
HETATM   20  C   UNL     1       0.156  13.115  23.835  0.00  0.00     0.002 A 
HETATM   21  C   UNL     1      -0.891  12.795  22.979  0.00  0.00     0.003 A 
HETATM   22  C   UNL     1      -1.629  11.639  23.211  0.00  0.00     0.044 A 
HETATM   23  C   UNL     1      -1.306  10.802  24.282  0.00  0.00     0.143 A 
HETATM   24  F   UNL     1      -2.124   9.769  24.531  0.00  0.00    -0.204 F 
ENDBRANCH   7  18
TORSDOF 4
ENDMDL
MODEL 4
REMARK VINA RESULT:    -6.655      1.028      1.538
REMARK INTER + INTRA:          -8.712
REMARK INTER:                  -7.875
REMARK INTRA:                  -0.836
REMARK UNBOUND:                -0.889
REMARK  4 active torsions:
REMARK  status: ('A' for Active; 'I' for Inactive)
REMARK    1  A    between atoms: O_1  and  C_2 
REMARK    2  A    between atoms: C_5  and  C_6 
REMARK    3  A    between atoms: N_12  and  C_13 
REMARK    4  A    between atoms: C_20  and  O_21 
ROOT
HETATM    1  C   UNL     1      -0.851  10.807  26.214  0.00  0.00     0.170 A 
HETATM    2  N   UNL     1      -1.499  11.323  27.230  0.00  0.00    -0.153 NA
HETATM    3  N   UNL     1      -1.114  10.605  28.304  0.00  0.00    -0.251 N 
HETATM    4  H   UNL     1      -1.395  10.855  29.251  0.00  0.00     0.191 HD
HETATM    5  C   UNL     1      -0.166   9.660  27.954  0.00  0.00     0.201 A 
HETATM    6  S   UNL     1       0.616   8.778  29.126  0.00  0.00    -0.038 SA
HETATM    7  N   UNL     1      -0.033   9.745  26.568  0.00  0.00    -0.266 N 
ENDROOT
BRANCH   1   8
HETATM    8  C   UNL     1      -1.048  11.414  24.872  0.00  0.00     0.045 C 
HETATM    9  C   UNL     1      -2.281  11.115  24.252  0.00  0.00     0.021 C 
HETATM   10  C   UNL     1      -2.653  11.715  23.049  0.00  0.00     0.037 C 
HETATM   11  C   UNL     1      -1.800  12.636  22.464  0.00  0.00     0.068 C 
HETATM   12  C   UNL     1      -0.545  12.887  23.012  0.00  0.00     0.074 C 
HETATM   13  C   UNL     1      -0.146  12.227  24.180  0.00  0.00     0.082 C 
BRANCH  11  14
HETATM   14  O   UNL     1      -2.160  13.319  21.340  0.00  0.00    -0.361 OA
HETATM   15  H   UNL     1      -1.522  14.036  21.191  0.00  0.00     0.217 HD
ENDBRANCH  11  14
BRANCH  13  16
HETATM   16  O   UNL     1       1.154  12.427  24.550  0.00  0.00    -0.360 OA
HETATM   17  H   UNL     1       1.284  13.368  24.757  0.00  0.00     0.217 HD
ENDBRANCH  13  16
ENDBRANCH   1   8
BRANCH   7  18
HETATM   18  C   UNL     1       0.802   8.913  25.760  0.00  0.00     0.082 A 
HETATM   19  C   UNL     1       2.085   9.355  25.383  0.00  0.00     0.033 A 
HETATM   20  C   UNL     1       2.986   8.517  24.715  0.00  0.00     0.002 A 
HETATM   21  C   UNL     1       2.638   7.200  24.439  0.00  0.00     0.003 A 
HETATM   22  C   UNL     1       1.359   6.754  24.759  0.00  0.00     0.044 A 
HETATM   23  C   UNL     1       0.446   7.619  25.368  0.00  0.00     0.143 A 
HETATM   24  F   UNL     1      -0.808   7.174  25.541  0.00  0.00    -0.204 F 
ENDBRANCH   7  18
TORSDOF 4
ENDMDL
MODEL 5
REMARK VINA RESULT:    -6.590      2.994      5.183
REMARK INTER + INTRA:          -8.635
REMARK INTER:                  -7.862
REMARK INTRA:                  -0.773
REMARK UNBOUND:                -0.889
REMARK  4 active torsions:
REMARK  status: ('A' for Active; 'I' for Inactive)
REMARK    1  A    between atoms: O_1  and  C_2 
REMARK    2  A    between atoms: C_5  and  C_6 
REMARK    3  A    between atoms: N_12  and  C_13 
REMARK    4  A    between atoms: C_20  and  O_21 
ROOT
HETATM    1  C   UNL     1       1.504   9.050  25.808  0.00  0.00     0.170 A 
HETATM    2  N   UNL     1       1.728   8.453  26.954  0.00  0.00    -0.153 NA
HETATM    3  N   UNL     1       0.826   8.971  27.811  0.00  0.00    -0.251 N 
HETATM    4  H   UNL     1       0.713   8.613  28.758  0.00  0.00     0.191 HD
HETATM    5  C   UNL     1      -0.010   9.867  27.169  0.00  0.00     0.201 A 
HETATM    6  S   UNL     1      -1.333  10.496  27.957  0.00  0.00    -0.038 SA
HETATM    7  N   UNL     1       0.468   9.971  25.864  0.00  0.00    -0.266 N 
ENDROOT
BRANCH   1   8
HETATM    8  C   UNL     1       2.335   8.663  24.638  0.00  0.00     0.045 C 
HETATM    9  C   UNL     1       3.213   9.664  24.168  0.00  0.00     0.021 C 
HETATM   10  C   UNL     1       4.139   9.401  23.158  0.00  0.00     0.037 C 
HETATM   11  C   UNL     1       4.206   8.126  22.622  0.00  0.00     0.068 C 
HETATM   12  C   UNL     1       3.298   7.145  23.011  0.00  0.00     0.074 C 
HETATM   13  C   UNL     1       2.323   7.435  23.972  0.00  0.00     0.082 C 
BRANCH  11  14
HETATM   14  O   UNL     1       5.157   7.795  21.702  0.00  0.00    -0.361 OA
HETATM   15  H   UNL     1       6.034   7.941  22.093  0.00  0.00     0.217 HD
ENDBRANCH  11  14
BRANCH  13  16
HETATM   16  O   UNL     1       1.390   6.457  24.172  0.00  0.00    -0.360 OA
HETATM   17  H   UNL     1       1.386   5.859  23.406  0.00  0.00     0.217 HD
ENDBRANCH  13  16
ENDBRANCH   1   8
BRANCH   7  18
HETATM   18  C   UNL     1      -0.057  10.832  24.852  0.00  0.00     0.082 A 
HETATM   19  C   UNL     1      -1.285  10.527  24.233  0.00  0.00     0.033 A 
HETATM   20  C   UNL     1      -1.903  11.414  23.344  0.00  0.00     0.002 A 
HETATM   21  C   UNL     1      -1.323  12.648  23.078  0.00  0.00     0.003 A 
HETATM   22  C   UNL     1      -0.087  12.953  23.639  0.00  0.00     0.044 A 
HETATM   23  C   UNL     1       0.552  12.034  24.475  0.00  0.00     0.143 A 
HETATM   24  F   UNL     1       1.793  12.329  24.887  0.00  0.00    -0.204 F 
ENDBRANCH   7  18
TORSDOF 4
ENDMDL
MODEL 6
REMARK VINA RESULT:    -6.476      2.551      3.771
REMARK INTER + INTRA:          -8.501
REMARK INTER:                  -7.586
REMARK INTRA:                  -0.915
REMARK UNBOUND:                -0.889
REMARK  4 active torsions:
REMARK  status: ('A' for Active; 'I' for Inactive)
REMARK    1  A    between atoms: O_1  and  C_2 
REMARK    2  A    between atoms: C_5  and  C_6 
REMARK    3  A    between atoms: N_12  and  C_13 
REMARK    4  A    between atoms: C_20  and  O_21 
ROOT
HETATM    1  C   UNL     1      -0.095   8.515  25.785  0.00  0.00     0.170 A 
HETATM    2  N   UNL     1      -0.672   7.762  24.879  0.00  0.00    -0.153 NA
HETATM    3  N   UNL     1      -0.683   6.519  25.399  0.00  0.00    -0.251 N 
HETATM    4  H   UNL     1      -1.162   5.746  24.941  0.00  0.00     0.191 HD
HETATM    5  C   UNL     1      -0.152   6.512  26.676  0.00  0.00     0.201 A 
HETATM    6  S   UNL     1      -0.232   5.139  27.613  0.00  0.00    -0.038 SA
HETATM    7  N   UNL     1       0.294   7.811  26.915  0.00  0.00    -0.266 N 
ENDROOT
BRANCH   1   8
HETATM    8  C   UNL     1       0.041   9.969  25.510  0.00  0.00     0.045 C 
HETATM    9  C   UNL     1       1.262  10.356  24.916  0.00  0.00     0.021 C 
HETATM   10  C   UNL     1       1.477  11.667  24.489  0.00  0.00     0.037 C 
HETATM   11  C   UNL     1       0.463  12.599  24.636  0.00  0.00     0.068 C 
HETATM   12  C   UNL     1      -0.718  12.262  25.292  0.00  0.00     0.074 C 
HETATM   13  C   UNL     1      -0.901  10.965  25.784  0.00  0.00     0.082 C 
BRANCH  11  14
HETATM   14  O   UNL     1       0.591  13.866  24.149  0.00  0.00    -0.361 OA
HETATM   15  H   UNL     1       0.637  13.825  23.180  0.00  0.00     0.217 HD
ENDBRANCH  11  14
BRANCH  13  16
HETATM   16  O   UNL     1      -2.024  10.778  26.540  0.00  0.00    -0.360 OA
HETATM   17  H   UNL     1      -1.893  11.190  27.411  0.00  0.00     0.217 HD
ENDBRANCH  13  16
ENDBRANCH   1   8
BRANCH   7  18
HETATM   18  C   UNL     1       0.967   8.257  28.094  0.00  0.00     0.082 A 
HETATM   19  C   UNL     1       0.248   8.431  29.293  0.00  0.00     0.033 A 
HETATM   20  C   UNL     1       0.890   8.727  30.501  0.00  0.00     0.002 A 
HETATM   21  C   UNL     1       2.276   8.820  30.547  0.00  0.00     0.003 A 
HETATM   22  C   UNL     1       3.005   8.699  29.368  0.00  0.00     0.044 A 
HETATM   23  C   UNL     1       2.348   8.468  28.156  0.00  0.00     0.143 A 
HETATM   24  F   UNL     1       3.087   8.483  27.038  0.00  0.00    -0.204 F 
ENDBRANCH   7  18
TORSDOF 4
ENDMDL
MODEL 7
REMARK VINA RESULT:    -6.397      4.104      5.984
REMARK INTER + INTRA:          -8.409
REMARK INTER:                  -7.477
REMARK INTRA:                  -0.932
REMARK UNBOUND:                -0.889
REMARK  4 active torsions:
REMARK  status: ('A' for Active; 'I' for Inactive)
REMARK    1  A    between atoms: O_1  and  C_2 
REMARK    2  A    between atoms: C_5  and  C_6 
REMARK    3  A    between atoms: N_12  and  C_13 
REMARK    4  A    between atoms: C_20  and  O_21 
ROOT
HETATM    1  C   UNL     1       3.976   7.467  24.125  0.00  0.00     0.170 A 
HETATM    2  N   UNL     1       5.039   6.881  24.621  0.00  0.00    -0.153 NA
HETATM    3  N   UNL     1       4.838   6.842  25.953  0.00  0.00    -0.251 N 
HETATM    4  H   UNL     1       5.471   6.350  26.581  0.00  0.00     0.191 HD
HETATM    5  C   UNL     1       3.601   7.365  26.283  0.00  0.00     0.201 A 
HETATM    6  S   UNL     1       3.027   7.253  27.841  0.00  0.00    -0.038 SA
HETATM    7  N   UNL     1       3.052   7.835  25.091  0.00  0.00    -0.266 N 
ENDROOT
BRANCH   1   8
HETATM    8  C   UNL     1       3.888   7.633  22.650  0.00  0.00     0.045 C 
HETATM    9  C   UNL     1       4.458   8.822  22.145  0.00  0.00     0.021 C 
HETATM   10  C   UNL     1       4.558   9.052  20.772  0.00  0.00     0.037 C 
HETATM   11  C   UNL     1       4.104   8.084  19.892  0.00  0.00     0.068 C 
HETATM   12  C   UNL     1       3.465   6.941  20.365  0.00  0.00     0.074 C 
HETATM   13  C   UNL     1       3.301   6.749  21.742  0.00  0.00     0.082 C 
BRANCH  11  14
HETATM   14  O   UNL     1       4.267   8.221  18.545  0.00  0.00    -0.361 OA
HETATM   15  H   UNL     1       4.076   9.141  18.299  0.00  0.00     0.217 HD
ENDBRANCH  11  14
BRANCH  13  16
HETATM   16  O   UNL     1       2.532   5.676  22.095  0.00  0.00    -0.360 OA
HETATM   17  H   UNL     1       1.840   5.546  21.425  0.00  0.00     0.217 HD
ENDBRANCH  13  16
ENDBRANCH   1   8
BRANCH   7  18
HETATM   18  C   UNL     1       1.799   8.510  24.960  0.00  0.00     0.082 A 
HETATM   19  C   UNL     1       0.599   7.773  24.945  0.00  0.00     0.033 A 
HETATM   20  C   UNL     1      -0.652   8.401  24.963  0.00  0.00     0.002 A 
HETATM   21  C   UNL     1      -0.733   9.786  25.034  0.00  0.00     0.003 A 
HETATM   22  C   UNL     1       0.437  10.538  25.002  0.00  0.00     0.044 A 
HETATM   23  C   UNL     1       1.678   9.903  24.919  0.00  0.00     0.143 A 
HETATM   24  F   UNL     1       2.762  10.678  24.767  0.00  0.00    -0.204 F 
ENDBRANCH   7  18
TORSDOF 4
ENDMDL
MODEL 8
REMARK VINA RESULT:    -6.350      1.855      2.358
REMARK INTER + INTRA:          -8.353
REMARK INTER:                  -7.592
REMARK INTRA:                  -0.761
REMARK UNBOUND:                -0.889
REMARK  4 active torsions:
REMARK  status: ('A' for Active; 'I' for Inactive)
REMARK    1  A    between atoms: O_1  and  C_2 
REMARK    2  A    between atoms: C_5  and  C_6 
REMARK    3  A    between atoms: N_12  and  C_13 
REMARK    4  A    between atoms: C_20  and  O_21 
ROOT
HETATM    1  C   UNL     1       0.230  10.142  25.933  0.00  0.00     0.170 A 
HETATM    2  N   UNL     1      -0.428  10.023  27.061  0.00  0.00    -0.153 NA
HETATM    3  N   UNL     1       0.333   9.228  27.838  0.00  0.00    -0.251 N 
HETATM    4  H   UNL     1       0.103   9.045  28.814  0.00  0.00     0.191 HD
HETATM    5  C   UNL     1       1.513   8.892  27.199  0.00  0.00     0.201 A 
HETATM    6  S   UNL     1       2.713   8.082  28.017  0.00  0.00    -0.038 SA
HETATM    7  N   UNL     1       1.425   9.439  25.919  0.00  0.00    -0.266 N 
ENDROOT
BRANCH   1   8
HETATM    8  C   UNL     1      -0.352  10.997  24.866  0.00  0.00     0.045 C 
HETATM    9  C   UNL     1       0.407  12.141  24.533  0.00  0.00     0.021 C 
HETATM   10  C   UNL     1       0.046  12.965  23.466  0.00  0.00     0.037 C 
HETATM   11  C   UNL     1      -1.068  12.640  22.711  0.00  0.00     0.068 C 
HETATM   12  C   UNL     1      -1.877  11.565  23.069  0.00  0.00     0.074 C 
HETATM   13  C   UNL     1      -1.553  10.785  24.184  0.00  0.00     0.082 C 
BRANCH  11  14
HETATM   14  O   UNL     1      -1.405  13.360  21.602  0.00  0.00    -0.361 OA
HETATM   15  H   UNL     1      -0.934  12.994  20.836  0.00  0.00     0.217 HD
ENDBRANCH  11  14
BRANCH  13  16
HETATM   16  O   UNL     1      -2.487   9.853  24.538  0.00  0.00    -0.360 OA
HETATM   17  H   UNL     1      -2.366   9.058  23.992  0.00  0.00     0.217 HD
ENDBRANCH  13  16
ENDBRANCH   1   8
BRANCH   7  18
HETATM   18  C   UNL     1       2.399   9.295  24.884  0.00  0.00     0.082 A 
HETATM   19  C   UNL     1       2.510   8.077  24.184  0.00  0.00     0.033 A 
HETATM   20  C   UNL     1       3.349   7.939  23.072  0.00  0.00     0.002 A 
HETATM   21  C   UNL     1       4.074   9.030  22.609  0.00  0.00     0.003 A 
HETATM   22  C   UNL     1       4.019  10.230  23.311  0.00  0.00     0.044 A 
HETATM   23  C   UNL     1       3.227  10.338  24.458  0.00  0.00     0.143 A 
HETATM   24  F   UNL     1       3.308  11.476  25.162  0.00  0.00    -0.204 F 
ENDBRANCH   7  18
TORSDOF 4
ENDMDL
MODEL 9
REMARK VINA RESULT:    -6.207      7.046      8.911
REMARK INTER + INTRA:          -8.185
REMARK INTER:                  -7.296
REMARK INTRA:                  -0.889
REMARK UNBOUND:                -0.889
REMARK  4 active torsions:
REMARK  status: ('A' for Active; 'I' for Inactive)
REMARK    1  A    between atoms: O_1  and  C_2 
REMARK    2  A    between atoms: C_5  and  C_6 
REMARK    3  A    between atoms: N_12  and  C_13 
REMARK    4  A    between atoms: C_20  and  O_21 
ROOT
HETATM    1  C   UNL     1       3.607   7.437  20.436  0.00  0.00     0.170 A 
HETATM    2  N   UNL     1       3.761   8.717  20.197  0.00  0.00    -0.153 NA
HETATM    3  N   UNL     1       3.209   8.925  18.986  0.00  0.00    -0.251 N 
HETATM    4  H   UNL     1       3.105   9.859  18.592  0.00  0.00     0.191 HD
HETATM    5  C   UNL     1       2.653   7.761  18.488  0.00  0.00     0.201 A 
HETATM    6  S   UNL     1       1.738   7.791  17.099  0.00  0.00    -0.038 SA
HETATM    7  N   UNL     1       2.964   6.762  19.410  0.00  0.00    -0.266 N 
ENDROOT
BRANCH   1   8
HETATM    8  C   UNL     1       4.097   6.899  21.732  0.00  0.00     0.045 C 
HETATM    9  C   UNL     1       4.949   5.778  21.633  0.00  0.00     0.021 C 
HETATM   10  C   UNL     1       5.581   5.246  22.757  0.00  0.00     0.037 C 
HETATM   11  C   UNL     1       5.380   5.844  23.989  0.00  0.00     0.068 C 
HETATM   12  C   UNL     1       4.482   6.899  24.126  0.00  0.00     0.074 C 
HETATM   13  C   UNL     1       3.794   7.382  23.008  0.00  0.00     0.082 C 
BRANCH  11  14
HETATM   14  O   UNL     1       6.050   5.420  25.099  0.00  0.00    -0.361 OA
HETATM   15  H   UNL     1       7.004   5.465  24.925  0.00  0.00     0.217 HD
ENDBRANCH  11  14
BRANCH  13  16
HETATM   16  O   UNL     1       2.829   8.313  23.272  0.00  0.00    -0.360 OA
HETATM   17  H   UNL     1       2.020   7.859  23.563  0.00  0.00     0.217 HD
ENDBRANCH  13  16
ENDBRANCH   1   8
BRANCH   7  18
HETATM   18  C   UNL     1       2.638   5.377  19.278  0.00  0.00     0.082 A 
HETATM   19  C   UNL     1       1.456   4.872  19.856  0.00  0.00     0.033 A 
HETATM   20  C   UNL     1       1.028   3.559  19.631  0.00  0.00     0.002 A 
HETATM   21  C   UNL     1       1.754   2.726  18.789  0.00  0.00     0.003 A 
HETATM   22  C   UNL     1       2.949   3.185  18.244  0.00  0.00     0.044 A 
HETATM   23  C   UNL     1       3.400   4.476  18.527  0.00  0.00     0.143 A 
HETATM   24  F   UNL     1       4.615   4.822  18.076  0.00  0.00    -0.204 F 
ENDBRANCH   7  18
TORSDOF 4
ENDMDL
