MODEL 1
REMARK VINA RESULT:    -7.305      0.000      0.000
REMARK INTER + INTRA:          -9.409
REMARK INTER:                  -8.392
REMARK INTRA:                  -1.017
REMARK UNBOUND:                -0.823
REMARK  4 active torsions:
REMARK  status: ('A' for Active; 'I' for Inactive)
REMARK    1  A    between atoms: O_1  and  C_2 
REMARK    2  A    between atoms: C_4  and  O_5 
REMARK    3  A    between atoms: C_6  and  C_10 
REMARK    4  A    between atoms: N_16  and  C_17 
ROOT
HETATM    1  C   UNL     1      -2.064  11.670  22.769  0.00  0.00     0.172 A 
HETATM    2  N   UNL     1      -2.490  10.980  21.741  0.00  0.00    -0.151 NA
HETATM    3  N   UNL     1      -1.700  11.360  20.702  0.00  0.00    -0.226 N 
HETATM    4  H   UNL     1      -1.690  10.872  19.818  0.00  0.00     0.194 HD
HETATM    5  C   UNL     1      -0.751  12.279  21.117  0.00  0.00     0.349 A 
HETATM    6  O   UNL     1       0.165  12.695  20.426  0.00  0.00    -0.245 OA
HETATM    7  N   UNL     1      -1.028  12.520  22.453  0.00  0.00    -0.241 N 
ENDROOT
BRANCH   1   8
HETATM    8  C   UNL     1      -2.709  11.560  24.112  0.00  0.00     0.047 A 
HETATM    9  C   UNL     1      -4.045  11.959  24.305  0.00  0.00     0.082 A 
HETATM   10  C   UNL     1      -4.686  11.783  25.537  0.00  0.00     0.075 A 
HETATM   11  C   UNL     1      -3.994  11.195  26.591  0.00  0.00     0.085 A 
HETATM   12  C   UNL     1      -2.649  10.859  26.440  0.00  0.00     0.045 A 
HETATM   13  C   UNL     1      -1.999  11.081  25.222  0.00  0.00     0.040 A 
HETATM   14 BR   UNL     1      -1.670  10.044  27.847  0.00  0.00    -0.048 Br
BRANCH   9  15
HETATM   15  O   UNL     1      -4.774  12.505  23.284  0.00  0.00    -0.360 OA
HETATM   16  H   UNL     1      -4.184  12.867  22.603  0.00  0.00     0.217 HD
ENDBRANCH   9  15
BRANCH  11  17
HETATM   17  O   UNL     1      -4.638  10.946  27.770  0.00  0.00    -0.359 OA
HETATM   18  H   UNL     1      -5.108  10.098  27.714  0.00  0.00     0.217 HD
ENDBRANCH  11  17
ENDBRANCH   1   8
BRANCH   7  19
HETATM   19  C   UNL     1      -0.149  13.295  23.236  0.00  0.00     0.084 A 
HETATM   20  C   UNL     1      -0.508  14.530  23.779  0.00  0.00     0.143 A 
HETATM   21  F   UNL     1      -1.730  15.041  23.569  0.00  0.00    -0.204 F 
HETATM   22  C   UNL     1       0.368  15.234  24.605  0.00  0.00     0.044 A 
HETATM   23  C   UNL     1       1.630  14.705  24.892  0.00  0.00     0.003 A 
HETATM   24  C   UNL     1       2.007  13.483  24.352  0.00  0.00     0.002 A 
HETATM   25  C   UNL     1       1.122  12.776  23.537  0.00  0.00     0.033 A 
ENDBRANCH   7  19
TORSDOF 4
ENDMDL
MODEL 2
REMARK VINA RESULT:    -7.077      2.872      3.385
REMARK INTER + INTRA:          -9.140
REMARK INTER:                  -8.003
REMARK INTRA:                  -1.137
REMARK UNBOUND:                -0.823
REMARK  4 active torsions:
REMARK  status: ('A' for Active; 'I' for Inactive)
REMARK    1  A    between atoms: O_1  and  C_2 
REMARK    2  A    between atoms: C_4  and  O_5 
REMARK    3  A    between atoms: C_6  and  C_10 
REMARK    4  A    between atoms: N_16  and  C_17 
ROOT
HETATM    1  C   UNL     1      -3.870  14.321  22.701  0.00  0.00     0.172 A 
HETATM    2  N   UNL     1      -5.028  14.833  22.366  0.00  0.00    -0.151 NA
HETATM    3  N   UNL     1      -4.853  15.322  21.110  0.00  0.00    -0.226 N 
HETATM    4  H   UNL     1      -5.623  15.628  20.532  0.00  0.00     0.194 HD
HETATM    5  C   UNL     1      -3.568  15.073  20.660  0.00  0.00     0.349 A 
HETATM    6  O   UNL     1      -3.172  15.289  19.526  0.00  0.00    -0.245 OA
HETATM    7  N   UNL     1      -2.914  14.470  21.722  0.00  0.00    -0.241 N 
ENDROOT
BRANCH   1   8
HETATM    8  C   UNL     1      -3.641  13.707  24.043  0.00  0.00     0.047 A 
HETATM    9  C   UNL     1      -4.131  12.420  24.340  0.00  0.00     0.082 A 
HETATM   10  C   UNL     1      -3.852  11.800  25.563  0.00  0.00     0.075 A 
HETATM   11  C   UNL     1      -3.068  12.461  26.503  0.00  0.00     0.085 A 
HETATM   12  C   UNL     1      -2.634  13.762  26.257  0.00  0.00     0.045 A 
HETATM   13  C   UNL     1      -2.956  14.398  25.052  0.00  0.00     0.040 A 
HETATM   14 BR   UNL     1      -1.554  14.698  27.505  0.00  0.00    -0.048 Br
BRANCH   9  15
HETATM   15  O   UNL     1      -4.872  11.719  23.428  0.00  0.00    -0.360 OA
HETATM   16  H   UNL     1      -5.267  12.322  22.777  0.00  0.00     0.217 HD
ENDBRANCH   9  15
BRANCH  11  17
HETATM   17  O   UNL     1      -2.725  11.829  27.665  0.00  0.00    -0.359 OA
HETATM   18  H   UNL     1      -3.384  11.147  27.874  0.00  0.00     0.217 HD
ENDBRANCH  11  17
ENDBRANCH   1   8
BRANCH   7  19
HETATM   19  C   UNL     1      -1.621  13.935  21.553  0.00  0.00     0.084 A 
HETATM   20  C   UNL     1      -1.393  12.601  21.208  0.00  0.00     0.143 A 
HETATM   21  F   UNL     1      -2.418  11.757  21.025  0.00  0.00    -0.204 F 
HETATM   22  C   UNL     1      -0.099  12.129  20.983  0.00  0.00     0.044 A 
HETATM   23  C   UNL     1       0.990  12.995  21.111  0.00  0.00     0.003 A 
HETATM   24  C   UNL     1       0.781  14.322  21.462  0.00  0.00     0.002 A 
HETATM   25  C   UNL     1      -0.515  14.794  21.673  0.00  0.00     0.033 A 
ENDBRANCH   7  19
TORSDOF 4
ENDMDL
MODEL 3
REMARK VINA RESULT:    -7.001      3.361      6.014
REMARK INTER + INTRA:          -9.052
REMARK INTER:                  -8.354
REMARK INTRA:                  -0.697
REMARK UNBOUND:                -0.823
REMARK  4 active torsions:
REMARK  status: ('A' for Active; 'I' for Inactive)
REMARK    1  A    between atoms: O_1  and  C_2 
REMARK    2  A    between atoms: C_4  and  O_5 
REMARK    3  A    between atoms: C_6  and  C_10 
REMARK    4  A    between atoms: N_16  and  C_17 
ROOT
HETATM    1  C   UNL     1      -1.299  11.619  22.486  0.00  0.00     0.172 A 
HETATM    2  N   UNL     1      -1.103  10.485  23.110  0.00  0.00    -0.151 NA
HETATM    3  N   UNL     1      -2.299  10.176  23.676  0.00  0.00    -0.226 N 
HETATM    4  H   UNL     1      -2.493   9.272  24.084  0.00  0.00     0.194 HD
HETATM    5  C   UNL     1      -3.252  11.130  23.362  0.00  0.00     0.349 A 
HETATM    6  O   UNL     1      -4.440  11.044  23.631  0.00  0.00    -0.245 OA
HETATM    7  N   UNL     1      -2.581  12.098  22.632  0.00  0.00    -0.241 N 
ENDROOT
BRANCH   1   8
HETATM    8  C   UNL     1      -0.197  12.316  21.757  0.00  0.00     0.047 A 
HETATM    9  C   UNL     1       0.422  13.457  22.304  0.00  0.00     0.082 A 
HETATM   10  C   UNL     1       1.509  14.069  21.671  0.00  0.00     0.075 A 
HETATM   11  C   UNL     1       1.996  13.538  20.481  0.00  0.00     0.085 A 
HETATM   12  C   UNL     1       1.353  12.453  19.887  0.00  0.00     0.045 A 
HETATM   13  C   UNL     1       0.236  11.874  20.499  0.00  0.00     0.040 A 
HETATM   14 BR   UNL     1       1.990  11.689  18.271  0.00  0.00    -0.048 Br
BRANCH   9  15
HETATM   15  O   UNL     1      -0.001  13.988  23.492  0.00  0.00    -0.360 OA
HETATM   16  H   UNL     1      -0.645  13.398  23.916  0.00  0.00     0.217 HD
ENDBRANCH   9  15
BRANCH  11  17
HETATM   17  O   UNL     1       3.108  14.081  19.901  0.00  0.00    -0.359 OA
HETATM   18  H   UNL     1       2.954  14.205  18.950  0.00  0.00     0.217 HD
ENDBRANCH  11  17
ENDBRANCH   1   8
BRANCH   7  19
HETATM   19  C   UNL     1      -3.293  13.145  22.012  0.00  0.00     0.084 A 
HETATM   20  C   UNL     1      -3.928  14.158  22.733  0.00  0.00     0.143 A 
HETATM   21  F   UNL     1      -3.890  14.172  24.073  0.00  0.00    -0.204 F 
HETATM   22  C   UNL     1      -4.563  15.215  22.079  0.00  0.00     0.044 A 
HETATM   23  C   UNL     1      -4.574  15.262  20.682  0.00  0.00     0.003 A 
HETATM   24  C   UNL     1      -3.954  14.258  19.951  0.00  0.00     0.002 A 
HETATM   25  C   UNL     1      -3.309  13.210  20.608  0.00  0.00     0.033 A 
ENDBRANCH   7  19
TORSDOF 4
ENDMDL
MODEL 4
REMARK VINA RESULT:    -6.977      3.218      5.627
REMARK INTER + INTRA:          -9.023
REMARK INTER:                  -7.926
REMARK INTRA:                  -1.097
REMARK UNBOUND:                -0.823
REMARK  4 active torsions:
REMARK  status: ('A' for Active; 'I' for Inactive)
REMARK    1  A    between atoms: O_1  and  C_2 
REMARK    2  A    between atoms: C_4  and  O_5 
REMARK    3  A    between atoms: C_6  and  C_10 
REMARK    4  A    between atoms: N_16  and  C_17 
ROOT
HETATM    1  C   UNL     1      -2.678  13.036  25.049  0.00  0.00     0.172 A 
HETATM    2  N   UNL     1      -3.781  13.739  25.113  0.00  0.00    -0.151 NA
HETATM    3  N   UNL     1      -4.752  12.851  25.452  0.00  0.00    -0.226 N 
HETATM    4  H   UNL     1      -5.679  13.138  25.733  0.00  0.00     0.194 HD
HETATM    5  C   UNL     1      -4.220  11.585  25.628  0.00  0.00     0.349 A 
HETATM    6  O   UNL     1      -4.839  10.623  26.055  0.00  0.00    -0.245 OA
HETATM    7  N   UNL     1      -2.877  11.699  25.311  0.00  0.00    -0.241 N 
ENDROOT
BRANCH   1   8
HETATM    8  C   UNL     1      -1.373  13.654  24.667  0.00  0.00     0.047 A 
HETATM    9  C   UNL     1      -0.681  14.492  25.563  0.00  0.00     0.082 A 
HETATM   10  C   UNL     1       0.581  15.009  25.249  0.00  0.00     0.075 A 
HETATM   11  C   UNL     1       1.170  14.685  24.031  0.00  0.00     0.085 A 
HETATM   12  C   UNL     1       0.471  13.915  23.102  0.00  0.00     0.045 A 
HETATM   13  C   UNL     1      -0.811  13.440  23.400  0.00  0.00     0.040 A 
HETATM   14 BR   UNL     1       1.241  13.439  21.434  0.00  0.00    -0.048 Br
BRANCH   9  15
HETATM   15  O   UNL     1      -1.207  14.804  26.787  0.00  0.00    -0.360 OA
HETATM   16  H   UNL     1      -0.985  15.718  27.028  0.00  0.00     0.217 HD
ENDBRANCH   9  15
BRANCH  11  17
HETATM   17  O   UNL     1       2.436  15.119  23.753  0.00  0.00    -0.359 OA
HETATM   18  H   UNL     1       2.933  14.415  23.307  0.00  0.00     0.217 HD
ENDBRANCH  11  17
ENDBRANCH   1   8
BRANCH   7  19
HETATM   19  C   UNL     1      -1.996  10.623  25.537  0.00  0.00     0.084 A 
HETATM   20  C   UNL     1      -1.414   9.890  24.500  0.00  0.00     0.143 A 
HETATM   21  F   UNL     1      -1.682  10.185  23.220  0.00  0.00    -0.204 F 
HETATM   22  C   UNL     1      -0.493   8.876  24.766  0.00  0.00     0.044 A 
HETATM   23  C   UNL     1      -0.148   8.579  26.088  0.00  0.00     0.003 A 
HETATM   24  C   UNL     1      -0.724   9.292  27.131  0.00  0.00     0.002 A 
HETATM   25  C   UNL     1      -1.635  10.314  26.860  0.00  0.00     0.033 A 
ENDBRANCH   7  19
TORSDOF 4
ENDMDL
MODEL 5
REMARK VINA RESULT:    -6.848      2.656      3.600
REMARK INTER + INTRA:          -8.872
REMARK INTER:                  -7.746
REMARK INTRA:                  -1.126
REMARK UNBOUND:                -0.823
REMARK  4 active torsions:
REMARK  status: ('A' for Active; 'I' for Inactive)
REMARK    1  A    between atoms: O_1  and  C_2 
REMARK    2  A    between atoms: C_4  and  O_5 
REMARK    3  A    between atoms: C_6  and  C_10 
REMARK    4  A    between atoms: N_16  and  C_17 
ROOT
HETATM    1  C   UNL     1      -2.932  11.522  24.456  0.00  0.00     0.172 A 
HETATM    2  N   UNL     1      -4.036  11.112  23.883  0.00  0.00    -0.151 NA
HETATM    3  N   UNL     1      -4.739  12.243  23.610  0.00  0.00    -0.226 N 
HETATM    4  H   UNL     1      -5.559  12.247  23.020  0.00  0.00     0.194 HD
HETATM    5  C   UNL     1      -4.031  13.367  23.999  0.00  0.00     0.349 A 
HETATM    6  O   UNL     1      -4.364  14.518  23.763  0.00  0.00    -0.245 OA
HETATM    7  N   UNL     1      -2.878  12.890  24.601  0.00  0.00    -0.241 N 
ENDROOT
BRANCH   1   8
HETATM    8  C   UNL     1      -1.896  10.562  24.944  0.00  0.00     0.047 A 
HETATM    9  C   UNL     1      -1.000   9.951  24.046  0.00  0.00     0.082 A 
HETATM   10  C   UNL     1       0.027   9.116  24.498  0.00  0.00     0.075 A 
HETATM   11  C   UNL     1       0.174   8.889  25.863  0.00  0.00     0.085 A 
HETATM   12  C   UNL     1      -0.746   9.427  26.762  0.00  0.00     0.045 A 
HETATM   13  C   UNL     1      -1.801  10.222  26.300  0.00  0.00     0.040 A 
HETATM   14 BR   UNL     1      -0.579   9.152  28.632  0.00  0.00    -0.048 Br
BRANCH   9  15
HETATM   15  O   UNL     1      -1.084  10.180  22.699  0.00  0.00    -0.360 OA
HETATM   16  H   UNL     1      -1.852  10.739  22.498  0.00  0.00     0.217 HD
ENDBRANCH   9  15
BRANCH  11  17
HETATM   17  O   UNL     1       1.223   8.140  26.317  0.00  0.00    -0.359 OA
HETATM   18  H   UNL     1       1.540   7.556  25.609  0.00  0.00     0.217 HD
ENDBRANCH  11  17
ENDBRANCH   1   8
BRANCH   7  19
HETATM   19  C   UNL     1      -1.847  13.776  24.974  0.00  0.00     0.084 A 
HETATM   20  C   UNL     1      -1.689  14.245  26.280  0.00  0.00     0.143 A 
HETATM   21  F   UNL     1      -2.533  13.866  27.251  0.00  0.00    -0.204 F 
HETATM   22  C   UNL     1      -0.614  15.067  26.622  0.00  0.00     0.044 A 
HETATM   23  C   UNL     1       0.317  15.437  25.648  0.00  0.00     0.003 A 
HETATM   24  C   UNL     1       0.168  14.987  24.343  0.00  0.00     0.002 A 
HETATM   25  C   UNL     1      -0.900  14.154  24.007  0.00  0.00     0.033 A 
ENDBRANCH   7  19
TORSDOF 4
ENDMDL
MODEL 6
REMARK VINA RESULT:    -6.845      2.485      3.143
REMARK INTER + INTRA:          -8.868
REMARK INTER:                  -7.776
REMARK INTRA:                  -1.092
REMARK UNBOUND:                -0.823
REMARK  4 active torsions:
REMARK  status: ('A' for Active; 'I' for Inactive)
REMARK    1  A    between atoms: O_1  and  C_2 
REMARK    2  A    between atoms: C_4  and  O_5 
REMARK    3  A    between atoms: C_6  and  C_10 
REMARK    4  A    between atoms: N_16  and  C_17 
ROOT
HETATM    1  C   UNL     1      -3.257  12.379  23.330  0.00  0.00     0.172 A 
HETATM    2  N   UNL     1      -4.561  12.462  23.253  0.00  0.00    -0.151 NA
HETATM    3  N   UNL     1      -4.809  13.183  22.128  0.00  0.00    -0.226 N 
HETATM    4  H   UNL     1      -5.732  13.267  21.726  0.00  0.00     0.194 HD
HETATM    5  C   UNL     1      -3.627  13.518  21.490  0.00  0.00     0.349 A 
HETATM    6  O   UNL     1      -3.553  14.055  20.396  0.00  0.00    -0.245 OA
HETATM    7  N   UNL     1      -2.616  13.040  22.307  0.00  0.00    -0.241 N 
ENDROOT
BRANCH   1   8
HETATM    8  C   UNL     1      -2.579  11.681  24.464  0.00  0.00     0.047 A 
HETATM    9  C   UNL     1      -2.764  12.114  25.791  0.00  0.00     0.082 A 
HETATM   10  C   UNL     1      -2.202  11.420  26.868  0.00  0.00     0.075 A 
HETATM   11  C   UNL     1      -1.452  10.274  26.627  0.00  0.00     0.085 A 
HETATM   12  C   UNL     1      -1.198   9.870  25.317  0.00  0.00     0.045 A 
HETATM   13  C   UNL     1      -1.721  10.595  24.241  0.00  0.00     0.040 A 
HETATM   14 BR   UNL     1      -0.189   8.307  24.941  0.00  0.00    -0.048 Br
BRANCH   9  15
HETATM   15  O   UNL     1      -3.527  13.214  26.075  0.00  0.00    -0.360 OA
HETATM   16  H   UNL     1      -3.000  14.024  25.986  0.00  0.00     0.217 HD
ENDBRANCH   9  15
BRANCH  11  17
HETATM   17  O   UNL     1      -0.968   9.545  27.678  0.00  0.00    -0.359 OA
HETATM   18  H   UNL     1      -0.748   8.648  27.380  0.00  0.00     0.217 HD
ENDBRANCH  11  17
ENDBRANCH   1   8
BRANCH   7  19
HETATM   19  C   UNL     1      -1.274  13.071  21.875  0.00  0.00     0.084 A 
HETATM   20  C   UNL     1      -0.723  12.091  21.048  0.00  0.00     0.143 A 
HETATM   21  F   UNL     1      -1.463  11.055  20.626  0.00  0.00    -0.204 F 
HETATM   22  C   UNL     1       0.590  12.195  20.587  0.00  0.00     0.044 A 
HETATM   23  C   UNL     1       1.374  13.290  20.961  0.00  0.00     0.003 A 
HETATM   24  C   UNL     1       0.843  14.269  21.791  0.00  0.00     0.002 A 
HETATM   25  C   UNL     1      -0.474  14.168  22.239  0.00  0.00     0.033 A 
ENDBRANCH   7  19
TORSDOF 4
ENDMDL
MODEL 7
REMARK VINA RESULT:    -6.839      2.645      3.606
REMARK INTER + INTRA:          -8.861
REMARK INTER:                  -7.817
REMARK INTRA:                  -1.044
REMARK UNBOUND:                -0.823
REMARK  4 active torsions:
REMARK  status: ('A' for Active; 'I' for Inactive)
REMARK    1  A    between atoms: O_1  and  C_2 
REMARK    2  A    between atoms: C_4  and  O_5 
REMARK    3  A    between atoms: C_6  and  C_10 
REMARK    4  A    between atoms: N_16  and  C_17 
ROOT
HETATM    1  C   UNL     1      -2.991  11.510  24.622  0.00  0.00     0.172 A 
HETATM    2  N   UNL     1      -4.101  11.087  24.069  0.00  0.00    -0.151 NA
HETATM    3  N   UNL     1      -4.727  12.207  23.620  0.00  0.00    -0.226 N 
HETATM    4  H   UNL     1      -5.528  12.174  23.005  0.00  0.00     0.194 HD
HETATM    5  C   UNL     1      -3.964  13.333  23.879  0.00  0.00     0.349 A 
HETATM    6  O   UNL     1      -4.222  14.457  23.477  0.00  0.00    -0.245 OA
HETATM    7  N   UNL     1      -2.860  12.880  24.582  0.00  0.00    -0.241 N 
ENDROOT
BRANCH   1   8
HETATM    8  C   UNL     1      -2.029  10.571  25.272  0.00  0.00     0.047 A 
HETATM    9  C   UNL     1      -2.049  10.368  26.666  0.00  0.00     0.082 A 
HETATM   10  C   UNL     1      -1.210   9.429  27.277  0.00  0.00     0.075 A 
HETATM   11  C   UNL     1      -0.343   8.674  26.493  0.00  0.00     0.085 A 
HETATM   12  C   UNL     1      -0.257   8.911  25.122  0.00  0.00     0.045 A 
HETATM   13  C   UNL     1      -1.064   9.884  24.522  0.00  0.00     0.040 A 
HETATM   14 BR   UNL     1       0.903   7.897  24.014  0.00  0.00    -0.048 Br
BRANCH   9  15
HETATM   15  O   UNL     1      -2.915  11.060  27.467  0.00  0.00    -0.360 OA
HETATM   16  H   UNL     1      -2.733  10.874  28.403  0.00  0.00     0.217 HD
ENDBRANCH   9  15
BRANCH  11  17
HETATM   17  O   UNL     1       0.421   7.700  27.073  0.00  0.00    -0.359 OA
HETATM   18  H   UNL     1      -0.095   6.880  27.147  0.00  0.00     0.217 HD
ENDBRANCH  11  17
ENDBRANCH   1   8
BRANCH   7  19
HETATM   19  C   UNL     1      -1.789  13.751  24.869  0.00  0.00     0.084 A 
HETATM   20  C   UNL     1      -1.641  14.386  26.104  0.00  0.00     0.143 A 
HETATM   21  F   UNL     1      -2.534  14.192  27.085  0.00  0.00    -0.204 F 
HETATM   22  C   UNL     1      -0.530  15.187  26.371  0.00  0.00     0.044 A 
HETATM   23  C   UNL     1       0.449  15.367  25.390  0.00  0.00     0.003 A 
HETATM   24  C   UNL     1       0.313  14.749  24.154  0.00  0.00     0.002 A 
HETATM   25  C   UNL     1      -0.793  13.939  23.895  0.00  0.00     0.033 A 
ENDBRANCH   7  19
TORSDOF 4
ENDMDL
MODEL 8
REMARK VINA RESULT:    -6.808      2.573      5.420
REMARK INTER + INTRA:          -8.825
REMARK INTER:                  -8.002
REMARK INTRA:                  -0.823
REMARK UNBOUND:                -0.823
REMARK  4 active torsions:
REMARK  status: ('A' for Active; 'I' for Inactive)
REMARK    1  A    between atoms: O_1  and  C_2 
REMARK    2  A    between atoms: C_4  and  O_5 
REMARK    3  A    between atoms: C_6  and  C_10 
REMARK    4  A    between atoms: N_16  and  C_17 
ROOT
HETATM    1  C   UNL     1      -2.687  12.161  23.209  0.00  0.00     0.172 A 
HETATM    2  N   UNL     1      -3.747  12.684  22.646  0.00  0.00    -0.151 NA
HETATM    3  N   UNL     1      -4.807  12.102  23.267  0.00  0.00    -0.226 N 
HETATM    4  H   UNL     1      -5.755  12.433  23.152  0.00  0.00     0.194 HD
HETATM    5  C   UNL     1      -4.380  11.229  24.252  0.00  0.00     0.349 A 
HETATM    6  O   UNL     1      -5.113  10.665  25.049  0.00  0.00    -0.245 OA
HETATM    7  N   UNL     1      -2.997  11.228  24.173  0.00  0.00    -0.241 N 
ENDROOT
BRANCH   1   8
HETATM    8  C   UNL     1      -1.305  12.523  22.774  0.00  0.00     0.047 A 
HETATM    9  C   UNL     1      -0.850  12.206  21.479  0.00  0.00     0.082 A 
HETATM   10  C   UNL     1       0.411  12.612  21.031  0.00  0.00     0.075 A 
HETATM   11  C   UNL     1       1.232  13.353  21.876  0.00  0.00     0.085 A 
HETATM   12  C   UNL     1       0.829  13.616  23.184  0.00  0.00     0.045 A 
HETATM   13  C   UNL     1      -0.413  13.165  23.644  0.00  0.00     0.040 A 
HETATM   14 BR   UNL     1       1.911  14.631  24.367  0.00  0.00    -0.048 Br
BRANCH   9  15
HETATM   15  O   UNL     1      -1.641  11.514  20.603  0.00  0.00    -0.360 OA
HETATM   16  H   UNL     1      -1.097  11.078  19.927  0.00  0.00     0.217 HD
ENDBRANCH   9  15
BRANCH  11  17
HETATM   17  O   UNL     1       2.430  13.823  21.417  0.00  0.00    -0.359 OA
HETATM   18  H   UNL     1       2.690  14.609  21.925  0.00  0.00     0.217 HD
ENDBRANCH  11  17
ENDBRANCH   1   8
BRANCH   7  19
HETATM   19  C   UNL     1      -2.227  10.561  25.148  0.00  0.00     0.084 A 
HETATM   20  C   UNL     1      -1.214   9.657  24.822  0.00  0.00     0.143 A 
HETATM   21  F   UNL     1      -0.931   9.377  23.541  0.00  0.00    -0.204 F 
HETATM   22  C   UNL     1      -0.429   9.070  25.815  0.00  0.00     0.044 A 
HETATM   23  C   UNL     1      -0.659   9.381  27.159  0.00  0.00     0.003 A 
HETATM   24  C   UNL     1      -1.668  10.272  27.499  0.00  0.00     0.002 A 
HETATM   25  C   UNL     1      -2.442  10.867  26.502  0.00  0.00     0.033 A 
ENDBRANCH   7  19
TORSDOF 4
ENDMDL
MODEL 9
REMARK VINA RESULT:    -6.796      2.811      4.103
REMARK INTER + INTRA:          -8.810
REMARK INTER:                  -7.977
REMARK INTRA:                  -0.834
REMARK UNBOUND:                -0.823
REMARK  4 active torsions:
REMARK  status: ('A' for Active; 'I' for Inactive)
REMARK    1  A    between atoms: O_1  and  C_2 
REMARK    2  A    between atoms: C_4  and  O_5 
REMARK    3  A    between atoms: C_6  and  C_10 
REMARK    4  A    between atoms: N_16  and  C_17 
ROOT
HETATM    1  C   UNL     1      -2.974  11.609  25.348  0.00  0.00     0.172 A 
HETATM    2  N   UNL     1      -4.143  11.794  25.909  0.00  0.00    -0.151 NA
HETATM    3  N   UNL     1      -4.703  12.834  25.236  0.00  0.00    -0.226 N 
HETATM    4  H   UNL     1      -5.674  13.093  25.343  0.00  0.00     0.194 HD
HETATM    5  C   UNL     1      -3.867  13.270  24.223  0.00  0.00     0.349 A 
HETATM    6  O   UNL     1      -4.166  14.105  23.383  0.00  0.00    -0.245 OA
HETATM    7  N   UNL     1      -2.717  12.505  24.335  0.00  0.00    -0.241 N 
ENDROOT
BRANCH   1   8
HETATM    8  C   UNL     1      -2.026  10.562  25.833  0.00  0.00     0.047 A 
HETATM    9  C   UNL     1      -1.898  10.286  27.208  0.00  0.00     0.082 A 
HETATM   10  C   UNL     1      -1.075   9.252  27.670  0.00  0.00     0.075 A 
HETATM   11  C   UNL     1      -0.376   8.474  26.753  0.00  0.00     0.085 A 
HETATM   12  C   UNL     1      -0.434   8.776  25.394  0.00  0.00     0.045 A 
HETATM   13  C   UNL     1      -1.219   9.842  24.941  0.00  0.00     0.040 A 
HETATM   14 BR   UNL     1       0.495   7.734  24.108  0.00  0.00    -0.048 Br
BRANCH   9  15
HETATM   15  O   UNL     1      -2.599  11.002  28.140  0.00  0.00    -0.360 OA
HETATM   16  H   UNL     1      -3.136  10.408  28.690  0.00  0.00     0.217 HD
ENDBRANCH   9  15
BRANCH  11  17
HETATM   17  O   UNL     1       0.364   7.411  27.191  0.00  0.00    -0.359 OA
HETATM   18  H   UNL     1       1.232   7.415  26.756  0.00  0.00     0.217 HD
ENDBRANCH  11  17
ENDBRANCH   1   8
BRANCH   7  19
HETATM   19  C   UNL     1      -1.711  12.580  23.351  0.00  0.00     0.084 A 
HETATM   20  C   UNL     1      -1.769  11.863  22.154  0.00  0.00     0.143 A 
HETATM   21  F   UNL     1      -2.805  11.053  21.890  0.00  0.00    -0.204 F 
HETATM   22  C   UNL     1      -0.786  12.018  21.175  0.00  0.00     0.044 A 
HETATM   23  C   UNL     1       0.279  12.896  21.393  0.00  0.00     0.003 A 
HETATM   24  C   UNL     1       0.356  13.610  22.582  0.00  0.00     0.002 A 
HETATM   25  C   UNL     1      -0.636  13.462  23.552  0.00  0.00     0.033 A 
ENDBRANCH   7  19
TORSDOF 4
ENDMDL
