MODEL 1
REMARK VINA RESULT:    -9.041      0.000      0.000
REMARK INTER + INTRA:         -13.149
REMARK INTER:                 -12.147
REMARK INTRA:                  -1.002
REMARK UNBOUND:                -1.202
REMARK  6 active torsions:
REMARK  status: ('A' for Active; 'I' for Inactive)
REMARK    1  A    between atoms: N_6  and  C_7 
REMARK    2  A    between atoms: C_12  and  N_13 
REMARK       I    between atoms: N_13  and  C_15 
REMARK    3  A    between atoms: C_15  and  C_17 
REMARK    4  A    between atoms: C_19  and  O_20 
REMARK    5  A    between atoms: C_27  and  C_28 
REMARK    6  A    between atoms: C_28  and  C_29 
ROOT
HETATM    1  C   UNL     1       8.853  10.689  23.374  0.00  0.00     0.066 C 
HETATM    2  C   UNL     1       8.653  11.697  24.341  0.00  0.00     0.035 C 
HETATM    3  C   UNL     1      10.174  10.267  23.129  0.00  0.00     0.083 C 
HETATM    4  C   UNL     1      11.280  10.873  23.740  0.00  0.00     0.069 C 
HETATM    5  C   UNL     1      11.025  11.986  24.548  0.00  0.00     0.065 A 
HETATM    6  C   UNL     1       9.742  12.445  24.833  0.00  0.00     0.020 A 
HETATM    7  N   UNL     1      11.861  12.830  25.222  0.00  0.00    -0.277 N 
HETATM    8  H   UNL     1      12.870  12.767  25.298  0.00  0.00     0.189 HD
HETATM    9  N   UNL     1      11.241  13.867  25.807  0.00  0.00    -0.178 NA
HETATM   10  C   UNL     1       9.933  13.665  25.558  0.00  0.00     0.071 A 
ENDROOT
BRANCH   1  11
HETATM   11  C   UNL     1       7.719  10.069  22.567  0.00  0.00     0.260 C 
HETATM   12  N   UNL     1       7.172  10.727  21.425  0.00  0.00    -0.318 N 
HETATM   13  C   UNL     1       7.728  12.002  20.941  0.00  0.00     0.159 C 
HETATM   14  O   UNL     1       7.385   8.958  22.963  0.00  0.00    -0.267 OA
BRANCH  12  15
HETATM   15  C   UNL     1       6.138  10.140  20.576  0.00  0.00     0.037 C 
HETATM   16  C   UNL     1       5.857  10.686  19.306  0.00  0.00     0.032 C 
HETATM   17  C   UNL     1       5.032  10.042  18.366  0.00  0.00     0.031 C 
HETATM   18  C   UNL     1       4.395   8.839  18.648  0.00  0.00     0.030 C 
HETATM   19  C   UNL     1       4.553   8.379  19.963  0.00  0.00     0.031 C 
HETATM   20  C   UNL     1       5.401   9.007  20.903  0.00  0.00     0.032 C 
BRANCH  18  21
HETATM   21  N   UNL     1       3.636   8.167  17.719  0.00  0.00    -0.377 N 
HETATM   22  C   UNL     1       2.418   7.399  18.031  0.00  0.00     0.149 C 
HETATM   23  C   UNL     1       2.491   6.046  17.295  0.00  0.00     0.187 C 
HETATM   24  O   UNL     1       2.694   6.206  15.879  0.00  0.00    -0.388 OA
HETATM   25  C   UNL     1       3.897   6.956  15.622  0.00  0.00     0.187 C 
HETATM   26  C   UNL     1       3.826   8.344  16.269  0.00  0.00     0.149 C 
ENDBRANCH  18  21
ENDBRANCH  12  15
ENDBRANCH   1  11
BRANCH   3  27
HETATM   27  O   UNL     1      10.491   9.233  22.279  0.00  0.00    -0.360 OA
HETATM   28  H   UNL     1      11.468   9.123  22.292  0.00  0.00     0.217 HD
ENDBRANCH   3  27
BRANCH  10  29
HETATM   29  C   UNL     1       8.933  14.690  26.038  0.00  0.00     0.100 C 
BRANCH  29  30
HETATM   30  C   UNL     1       7.912  15.049  24.959  0.00  0.00    -0.052 A 
HETATM   31  C   UNL     1       8.264  15.312  23.627  0.00  0.00     0.007 A 
HETATM   32  C   UNL     1       7.299  15.641  22.672  0.00  0.00     0.001 A 
HETATM   33  C   UNL     1       5.967  15.805  23.042  0.00  0.00     0.007 A 
HETATM   34  C   UNL     1       5.592  15.677  24.382  0.00  0.00    -0.061 A 
HETATM   35  C   UNL     1       6.558  15.262  25.322  0.00  0.00     0.014 A 
HETATM   36  C   UNL     1       4.174  15.993  24.769  0.00  0.00     0.048 C 
ENDBRANCH  29  30
ENDBRANCH  10  29
TORSDOF 6
ENDMDL
MODEL 2
REMARK VINA RESULT:    -8.462      2.150      3.419
REMARK INTER + INTRA:         -12.384
REMARK INTER:                 -11.020
REMARK INTRA:                  -1.364
REMARK UNBOUND:                -1.202
REMARK  6 active torsions:
REMARK  status: ('A' for Active; 'I' for Inactive)
REMARK    1  A    between atoms: N_6  and  C_7 
REMARK    2  A    between atoms: C_12  and  N_13 
REMARK       I    between atoms: N_13  and  C_15 
REMARK    3  A    between atoms: C_15  and  C_17 
REMARK    4  A    between atoms: C_19  and  O_20 
REMARK    5  A    between atoms: C_27  and  C_28 
REMARK    6  A    between atoms: C_28  and  C_29 
ROOT
HETATM    1  C   UNL     1       7.056  11.609  21.955  0.00  0.00     0.066 C 
HETATM    2  C   UNL     1       6.314  12.707  22.441  0.00  0.00     0.035 C 
HETATM    3  C   UNL     1       8.252  11.278  22.622  0.00  0.00     0.083 C 
HETATM    4  C   UNL     1       8.761  12.050  23.676  0.00  0.00     0.069 C 
HETATM    5  C   UNL     1       8.073  13.226  23.987  0.00  0.00     0.065 A 
HETATM    6  C   UNL     1       6.883  13.603  23.368  0.00  0.00     0.020 A 
HETATM    7  N   UNL     1       8.331  14.218  24.891  0.00  0.00    -0.277 N 
HETATM    8  H   UNL     1       9.084  14.254  25.567  0.00  0.00     0.189 HD
HETATM    9  N   UNL     1       7.488  15.260  24.819  0.00  0.00    -0.178 NA
HETATM   10  C   UNL     1       6.600  14.915  23.868  0.00  0.00     0.071 A 
ENDROOT
BRANCH   1  11
HETATM   11  C   UNL     1       6.644  10.797  20.734  0.00  0.00     0.260 C 
HETATM   12  N   UNL     1       5.910   9.580  20.863  0.00  0.00    -0.318 N 
HETATM   13  C   UNL     1       5.463   9.095  22.180  0.00  0.00     0.159 C 
HETATM   14  O   UNL     1       6.953  11.319  19.670  0.00  0.00    -0.267 OA
BRANCH  12  15
HETATM   15  C   UNL     1       5.427   8.806  19.722  0.00  0.00     0.037 C 
HETATM   16  C   UNL     1       5.854   7.476  19.523  0.00  0.00     0.032 C 
HETATM   17  C   UNL     1       5.266   6.620  18.575  0.00  0.00     0.031 C 
HETATM   18  C   UNL     1       4.249   7.048  17.730  0.00  0.00     0.030 C 
HETATM   19  C   UNL     1       3.933   8.410  17.824  0.00  0.00     0.031 C 
HETATM   20  C   UNL     1       4.502   9.269  18.792  0.00  0.00     0.032 C 
BRANCH  18  21
HETATM   21  N   UNL     1       3.621   6.206  16.841  0.00  0.00    -0.377 N 
HETATM   22  C   UNL     1       3.366   6.524  15.426  0.00  0.00     0.149 C 
HETATM   23  C   UNL     1       1.912   6.134  15.091  0.00  0.00     0.187 C 
HETATM   24  O   UNL     1       1.631   4.758  15.406  0.00  0.00    -0.388 OA
HETATM   25  C   UNL     1       1.888   4.495  16.799  0.00  0.00     0.187 C 
HETATM   26  C   UNL     1       3.351   4.792  17.151  0.00  0.00     0.149 C 
ENDBRANCH  18  21
ENDBRANCH  12  15
ENDBRANCH   1  11
BRANCH   3  27
HETATM   27  O   UNL     1       9.014  10.179  22.303  0.00  0.00    -0.360 OA
HETATM   28  H   UNL     1       9.001  10.078  21.325  0.00  0.00     0.217 HD
ENDBRANCH   3  27
BRANCH  10  29
HETATM   29  C   UNL     1       5.520  15.899  23.487  0.00  0.00     0.100 C 
BRANCH  29  30
HETATM   30  C   UNL     1       4.124  15.392  23.850  0.00  0.00    -0.052 A 
HETATM   31  C   UNL     1       3.683  15.242  25.172  0.00  0.00     0.007 A 
HETATM   32  C   UNL     1       2.400  14.770  25.461  0.00  0.00     0.001 A 
HETATM   33  C   UNL     1       1.556  14.351  24.436  0.00  0.00     0.007 A 
HETATM   34  C   UNL     1       2.000  14.365  23.112  0.00  0.00    -0.061 A 
HETATM   35  C   UNL     1       3.265  14.921  22.826  0.00  0.00     0.014 A 
HETATM   36  C   UNL     1       1.116  13.779  22.046  0.00  0.00     0.048 C 
ENDBRANCH  29  30
ENDBRANCH  10  29
TORSDOF 6
ENDMDL
MODEL 3
REMARK VINA RESULT:    -8.356      3.608      4.202
REMARK INTER + INTRA:         -12.245
REMARK INTER:                 -10.935
REMARK INTRA:                  -1.310
REMARK UNBOUND:                -1.202
REMARK  6 active torsions:
REMARK  status: ('A' for Active; 'I' for Inactive)
REMARK    1  A    between atoms: N_6  and  C_7 
REMARK    2  A    between atoms: C_12  and  N_13 
REMARK       I    between atoms: N_13  and  C_15 
REMARK    3  A    between atoms: C_15  and  C_17 
REMARK    4  A    between atoms: C_19  and  O_20 
REMARK    5  A    between atoms: C_27  and  C_28 
REMARK    6  A    between atoms: C_28  and  C_29 
ROOT
HETATM    1  C   UNL     1       9.921  10.594  23.247  0.00  0.00     0.066 C 
HETATM    2  C   UNL     1       9.732  11.863  23.834  0.00  0.00     0.035 C 
HETATM    3  C   UNL     1      10.896  10.477  22.236  0.00  0.00     0.083 C 
HETATM    4  C   UNL     1      11.603  11.584  21.746  0.00  0.00     0.069 C 
HETATM    5  C   UNL     1      11.237  12.839  22.243  0.00  0.00     0.065 A 
HETATM    6  C   UNL     1      10.287  13.016  23.245  0.00  0.00     0.020 A 
HETATM    7  N   UNL     1      11.667  14.098  21.935  0.00  0.00    -0.277 N 
HETATM    8  H   UNL     1      12.403  14.357  21.289  0.00  0.00     0.189 HD
HETATM    9  N   UNL     1      10.988  15.077  22.554  0.00  0.00    -0.178 NA
HETATM   10  C   UNL     1      10.113  14.434  23.349  0.00  0.00     0.071 A 
ENDROOT
BRANCH   1  11
HETATM   11  C   UNL     1       9.104   9.366  23.627  0.00  0.00     0.260 C 
HETATM   12  N   UNL     1       7.751   9.212  23.202  0.00  0.00    -0.318 N 
HETATM   13  C   UNL     1       7.110  10.205  22.322  0.00  0.00     0.159 C 
HETATM   14  O   UNL     1       9.737   8.533  24.266  0.00  0.00    -0.267 OA
BRANCH  12  15
HETATM   15  C   UNL     1       6.950   8.021  23.477  0.00  0.00     0.037 C 
HETATM   16  C   UNL     1       5.833   8.089  24.335  0.00  0.00     0.032 C 
HETATM   17  C   UNL     1       4.908   7.037  24.467  0.00  0.00     0.031 C 
HETATM   18  C   UNL     1       5.065   5.833  23.792  0.00  0.00     0.030 C 
HETATM   19  C   UNL     1       6.255   5.712  23.062  0.00  0.00     0.031 C 
HETATM   20  C   UNL     1       7.174   6.774  22.904  0.00  0.00     0.032 C 
BRANCH  18  21
HETATM   21  N   UNL     1       4.138   4.818  23.862  0.00  0.00    -0.377 N 
HETATM   22  C   UNL     1       4.449   3.424  24.224  0.00  0.00     0.149 C 
HETATM   23  C   UNL     1       3.737   2.490  23.226  0.00  0.00     0.187 C 
HETATM   24  O   UNL     1       2.320   2.739  23.160  0.00  0.00    -0.388 OA
HETATM   25  C   UNL     1       2.065   4.110  22.798  0.00  0.00     0.187 C 
HETATM   26  C   UNL     1       2.688   5.071  23.818  0.00  0.00     0.149 C 
ENDBRANCH  18  21
ENDBRANCH  12  15
ENDBRANCH   1  11
BRANCH   3  27
HETATM   27  O   UNL     1      11.238   9.281  21.652  0.00  0.00    -0.360 OA
HETATM   28  H   UNL     1      10.414   8.755  21.541  0.00  0.00     0.217 HD
ENDBRANCH   3  27
BRANCH  10  29
HETATM   29  C   UNL     1       9.137  15.247  24.166  0.00  0.00     0.100 C 
BRANCH  29  30
HETATM   30  C   UNL     1       7.687  14.994  23.753  0.00  0.00    -0.052 A 
HETATM   31  C   UNL     1       7.333  14.340  22.564  0.00  0.00     0.007 A 
HETATM   32  C   UNL     1       5.994  14.133  22.221  0.00  0.00     0.001 A 
HETATM   33  C   UNL     1       4.974  14.654  23.012  0.00  0.00     0.007 A 
HETATM   34  C   UNL     1       5.283  15.422  24.138  0.00  0.00    -0.061 A 
HETATM   35  C   UNL     1       6.635  15.553  24.521  0.00  0.00     0.014 A 
HETATM   36  C   UNL     1       4.163  16.083  24.892  0.00  0.00     0.048 C 
ENDBRANCH  29  30
ENDBRANCH  10  29
TORSDOF 6
ENDMDL
MODEL 4
REMARK VINA RESULT:    -8.322      2.536      4.810
REMARK INTER + INTRA:         -12.200
REMARK INTER:                 -11.287
REMARK INTRA:                  -0.913
REMARK UNBOUND:                -1.202
REMARK  6 active torsions:
REMARK  status: ('A' for Active; 'I' for Inactive)
REMARK    1  A    between atoms: N_6  and  C_7 
REMARK    2  A    between atoms: C_12  and  N_13 
REMARK       I    between atoms: N_13  and  C_15 
REMARK    3  A    between atoms: C_15  and  C_17 
REMARK    4  A    between atoms: C_19  and  O_20 
REMARK    5  A    between atoms: C_27  and  C_28 
REMARK    6  A    between atoms: C_28  and  C_29 
ROOT
HETATM    1  C   UNL     1       5.725  11.794  20.921  0.00  0.00     0.066 C 
HETATM    2  C   UNL     1       6.920  12.543  20.844  0.00  0.00     0.035 C 
HETATM    3  C   UNL     1       4.670  12.319  21.694  0.00  0.00     0.083 C 
HETATM    4  C   UNL     1       4.805  13.494  22.446  0.00  0.00     0.069 C 
HETATM    5  C   UNL     1       6.070  14.087  22.471  0.00  0.00     0.065 A 
HETATM    6  C   UNL     1       7.148  13.620  21.724  0.00  0.00     0.020 A 
HETATM    7  N   UNL     1       6.550  15.176  23.142  0.00  0.00    -0.277 N 
HETATM    8  H   UNL     1       6.031  15.810  23.738  0.00  0.00     0.189 HD
HETATM    9  N   UNL     1       7.870  15.374  22.997  0.00  0.00    -0.178 NA
HETATM   10  C   UNL     1       8.266  14.409  22.145  0.00  0.00     0.071 A 
ENDROOT
BRANCH   1  11
HETATM   11  C   UNL     1       5.541  10.442  20.242  0.00  0.00     0.260 C 
HETATM   12  N   UNL     1       4.835  10.320  19.009  0.00  0.00    -0.318 N 
HETATM   13  C   UNL     1       4.312  11.505  18.308  0.00  0.00     0.159 C 
HETATM   14  O   UNL     1       6.098   9.520  20.827  0.00  0.00    -0.267 OA
BRANCH  12  15
HETATM   15  C   UNL     1       4.697   9.060  18.283  0.00  0.00     0.037 C 
HETATM   16  C   UNL     1       4.139   7.926  18.910  0.00  0.00     0.032 C 
HETATM   17  C   UNL     1       3.786   6.761  18.205  0.00  0.00     0.031 C 
HETATM   18  C   UNL     1       4.014   6.631  16.841  0.00  0.00     0.030 C 
HETATM   19  C   UNL     1       4.708   7.696  16.250  0.00  0.00     0.031 C 
HETATM   20  C   UNL     1       5.040   8.880  16.947  0.00  0.00     0.032 C 
BRANCH  18  21
HETATM   21  N   UNL     1       3.619   5.523  16.126  0.00  0.00    -0.377 N 
HETATM   22  C   UNL     1       3.271   5.531  14.695  0.00  0.00     0.149 C 
HETATM   23  C   UNL     1       1.967   4.730  14.504  0.00  0.00     0.187 C 
HETATM   24  O   UNL     1       2.063   3.397  15.041  0.00  0.00    -0.388 OA
HETATM   25  C   UNL     1       2.398   3.439  16.441  0.00  0.00     0.187 C 
HETATM   26  C   UNL     1       3.735   4.157  16.663  0.00  0.00     0.149 C 
ENDBRANCH  18  21
ENDBRANCH  12  15
ENDBRANCH   1  11
BRANCH   3  27
HETATM   27  O   UNL     1       3.430  11.731  21.774  0.00  0.00    -0.360 OA
HETATM   28  H   UNL     1       2.790  12.316  21.308  0.00  0.00     0.217 HD
ENDBRANCH   3  27
BRANCH  10  29
HETATM   29  C   UNL     1       9.732  14.304  21.796  0.00  0.00     0.100 C 
BRANCH  29  30
HETATM   30  C   UNL     1      10.578  13.854  22.987  0.00  0.00    -0.052 A 
HETATM   31  C   UNL     1      10.220  12.786  23.821  0.00  0.00     0.007 A 
HETATM   32  C   UNL     1      11.020  12.410  24.904  0.00  0.00     0.001 A 
HETATM   33  C   UNL     1      12.152  13.149  25.234  0.00  0.00     0.007 A 
HETATM   34  C   UNL     1      12.476  14.297  24.507  0.00  0.00    -0.061 A 
HETATM   35  C   UNL     1      11.710  14.618  23.366  0.00  0.00     0.014 A 
HETATM   36  C   UNL     1      13.625  15.148  24.973  0.00  0.00     0.048 C 
ENDBRANCH  29  30
ENDBRANCH  10  29
TORSDOF 6
ENDMDL
MODEL 5
REMARK VINA RESULT:    -8.320      3.470      4.995
REMARK INTER + INTRA:         -12.197
REMARK INTER:                 -11.470
REMARK INTRA:                  -0.727
REMARK UNBOUND:                -1.202
REMARK  6 active torsions:
REMARK  status: ('A' for Active; 'I' for Inactive)
REMARK    1  A    between atoms: N_6  and  C_7 
REMARK    2  A    between atoms: C_12  and  N_13 
REMARK       I    between atoms: N_13  and  C_15 
REMARK    3  A    between atoms: C_15  and  C_17 
REMARK    4  A    between atoms: C_19  and  O_20 
REMARK    5  A    between atoms: C_27  and  C_28 
REMARK    6  A    between atoms: C_28  and  C_29 
ROOT
HETATM    1  C   UNL     1       5.298  12.580  21.725  0.00  0.00     0.066 C 
HETATM    2  C   UNL     1       4.384  12.899  22.753  0.00  0.00     0.035 C 
HETATM    3  C   UNL     1       6.492  13.324  21.654  0.00  0.00     0.083 C 
HETATM    4  C   UNL     1       6.751  14.409  22.503  0.00  0.00     0.069 C 
HETATM    5  C   UNL     1       5.726  14.786  23.377  0.00  0.00     0.065 A 
HETATM    6  C   UNL     1       4.528  14.087  23.497  0.00  0.00     0.020 A 
HETATM    7  N   UNL     1       5.627  15.815  24.270  0.00  0.00    -0.277 N 
HETATM    8  H   UNL     1       6.337  16.499  24.503  0.00  0.00     0.189 HD
HETATM    9  N   UNL     1       4.424  15.919  24.857  0.00  0.00    -0.178 NA
HETATM   10  C   UNL     1       3.720  14.877  24.376  0.00  0.00     0.071 A 
ENDROOT
BRANCH   1  11
HETATM   11  C   UNL     1       5.036  11.504  20.678  0.00  0.00     0.260 C 
HETATM   12  N   UNL     1       5.702  10.244  20.725  0.00  0.00    -0.318 N 
HETATM   13  C   UNL     1       6.621   9.907  21.826  0.00  0.00     0.159 C 
HETATM   14  O   UNL     1       4.179  11.815  19.859  0.00  0.00    -0.267 OA
BRANCH  12  15
HETATM   15  C   UNL     1       5.430   9.154  19.790  0.00  0.00     0.037 C 
HETATM   16  C   UNL     1       4.629   8.060  20.177  0.00  0.00     0.032 C 
HETATM   17  C   UNL     1       4.160   7.098  19.264  0.00  0.00     0.031 C 
HETATM   18  C   UNL     1       4.501   7.136  17.917  0.00  0.00     0.030 C 
HETATM   19  C   UNL     1       5.421   8.134  17.566  0.00  0.00     0.031 C 
HETATM   20  C   UNL     1       5.874   9.119  18.473  0.00  0.00     0.032 C 
BRANCH  18  21
HETATM   21  N   UNL     1       4.002   6.239  17.001  0.00  0.00    -0.377 N 
HETATM   22  C   UNL     1       3.664   6.569  15.605  0.00  0.00     0.149 C 
HETATM   23  C   UNL     1       2.289   5.956  15.277  0.00  0.00     0.187 C 
HETATM   24  O   UNL     1       2.247   4.540  15.534  0.00  0.00    -0.388 OA
HETATM   25  C   UNL     1       2.577   4.266  16.909  0.00  0.00     0.187 C 
HETATM   26  C   UNL     1       3.978   4.788  17.251  0.00  0.00     0.149 C 
ENDBRANCH  18  21
ENDBRANCH  12  15
ENDBRANCH   1  11
BRANCH   3  27
HETATM   27  O   UNL     1       7.499  13.052  20.758  0.00  0.00    -0.360 OA
HETATM   28  H   UNL     1       7.511  13.775  20.091  0.00  0.00     0.217 HD
ENDBRANCH   3  27
BRANCH  10  29
HETATM   29  C   UNL     1       2.278  14.716  24.797  0.00  0.00     0.100 C 
BRANCH  29  30
HETATM   30  C   UNL     1       1.400  14.195  23.659  0.00  0.00    -0.052 A 
HETATM   31  C   UNL     1       1.592  14.555  22.317  0.00  0.00     0.007 A 
HETATM   32  C   UNL     1       0.763  14.061  21.307  0.00  0.00     0.001 A 
HETATM   33  C   UNL     1      -0.335  13.266  21.622  0.00  0.00     0.007 A 
HETATM   34  C   UNL     1      -0.638  12.987  22.956  0.00  0.00    -0.061 A 
HETATM   35  C   UNL     1       0.253  13.420  23.961  0.00  0.00     0.014 A 
HETATM   36  C   UNL     1      -1.906  12.241  23.270  0.00  0.00     0.048 C 
ENDBRANCH  29  30
ENDBRANCH  10  29
TORSDOF 6
ENDMDL
MODEL 6
REMARK VINA RESULT:    -8.275      2.633      4.398
REMARK INTER + INTRA:         -12.137
REMARK INTER:                 -10.823
REMARK INTRA:                  -1.314
REMARK UNBOUND:                -1.202
REMARK  6 active torsions:
REMARK  status: ('A' for Active; 'I' for Inactive)
REMARK    1  A    between atoms: N_6  and  C_7 
REMARK    2  A    between atoms: C_12  and  N_13 
REMARK       I    between atoms: N_13  and  C_15 
REMARK    3  A    between atoms: C_15  and  C_17 
REMARK    4  A    between atoms: C_19  and  O_20 
REMARK    5  A    between atoms: C_27  and  C_28 
REMARK    6  A    between atoms: C_28  and  C_29 
ROOT
HETATM    1  C   UNL     1       5.132  12.456  22.158  0.00  0.00     0.066 C 
HETATM    2  C   UNL     1       5.973  13.573  21.971  0.00  0.00     0.035 C 
HETATM    3  C   UNL     1       4.617  12.231  23.450  0.00  0.00     0.083 C 
HETATM    4  C   UNL     1       4.984  13.017  24.550  0.00  0.00     0.069 C 
HETATM    5  C   UNL     1       5.961  13.993  24.332  0.00  0.00     0.065 A 
HETATM    6  C   UNL     1       6.502  14.266  23.078  0.00  0.00     0.020 A 
HETATM    7  N   UNL     1       6.580  14.865  25.182  0.00  0.00    -0.277 N 
HETATM    8  H   UNL     1       6.396  14.999  26.169  0.00  0.00     0.189 HD
HETATM    9  N   UNL     1       7.562  15.583  24.614  0.00  0.00    -0.178 NA
HETATM   10  C   UNL     1       7.550  15.212  23.320  0.00  0.00     0.071 A 
ENDROOT
BRANCH   1  11
HETATM   11  C   UNL     1       4.788  11.473  21.045  0.00  0.00     0.260 C 
HETATM   12  N   UNL     1       5.593  10.322  20.794  0.00  0.00    -0.318 N 
HETATM   13  C   UNL     1       6.753  10.003  21.644  0.00  0.00     0.159 C 
HETATM   14  O   UNL     1       3.749  11.745  20.455  0.00  0.00    -0.267 OA
BRANCH  12  15
HETATM   15  C   UNL     1       5.264   9.313  19.791  0.00  0.00     0.037 C 
HETATM   16  C   UNL     1       4.873   8.014  20.180  0.00  0.00     0.032 C 
HETATM   17  C   UNL     1       4.343   7.075  19.277  0.00  0.00     0.031 C 
HETATM   18  C   UNL     1       4.215   7.351  17.921  0.00  0.00     0.030 C 
HETATM   19  C   UNL     1       4.747   8.582  17.513  0.00  0.00     0.031 C 
HETATM   20  C   UNL     1       5.256   9.540  18.419  0.00  0.00     0.032 C 
BRANCH  18  21
HETATM   21  N   UNL     1       3.642   6.467  17.036  0.00  0.00    -0.377 N 
HETATM   22  C   UNL     1       3.406   6.746  15.609  0.00  0.00     0.149 C 
HETATM   23  C   UNL     1       1.977   6.290  15.251  0.00  0.00     0.187 C 
HETATM   24  O   UNL     1       1.744   4.910  15.589  0.00  0.00    -0.388 OA
HETATM   25  C   UNL     1       1.981   4.686  16.992  0.00  0.00     0.187 C 
HETATM   26  C   UNL     1       3.423   5.049  17.370  0.00  0.00     0.149 C 
ENDBRANCH  18  21
ENDBRANCH  12  15
ENDBRANCH   1  11
BRANCH   3  27
HETATM   27  O   UNL     1       3.717  11.232  23.740  0.00  0.00    -0.360 OA
HETATM   28  H   UNL     1       3.466  11.320  24.687  0.00  0.00     0.217 HD
ENDBRANCH   3  27
BRANCH  10  29
HETATM   29  C   UNL     1       8.579  15.799  22.384  0.00  0.00     0.100 C 
BRANCH  29  30
HETATM   30  C   UNL     1       9.907  15.044  22.441  0.00  0.00    -0.052 A 
HETATM   31  C   UNL     1      11.125  15.659  22.764  0.00  0.00     0.007 A 
HETATM   32  C   UNL     1      12.318  14.933  22.799  0.00  0.00     0.001 A 
HETATM   33  C   UNL     1      12.340  13.593  22.425  0.00  0.00     0.007 A 
HETATM   34  C   UNL     1      11.172  12.972  21.974  0.00  0.00    -0.061 A 
HETATM   35  C   UNL     1       9.959  13.690  22.022  0.00  0.00     0.014 A 
HETATM   36  C   UNL     1      11.257  11.566  21.449  0.00  0.00     0.048 C 
ENDBRANCH  29  30
ENDBRANCH  10  29
TORSDOF 6
ENDMDL
MODEL 7
REMARK VINA RESULT:    -8.256      2.736      4.723
REMARK INTER + INTRA:         -12.112
REMARK INTER:                 -11.354
REMARK INTRA:                  -0.758
REMARK UNBOUND:                -1.202
REMARK  6 active torsions:
REMARK  status: ('A' for Active; 'I' for Inactive)
REMARK    1  A    between atoms: N_6  and  C_7 
REMARK    2  A    between atoms: C_12  and  N_13 
REMARK       I    between atoms: N_13  and  C_15 
REMARK    3  A    between atoms: C_15  and  C_17 
REMARK    4  A    between atoms: C_19  and  O_20 
REMARK    5  A    between atoms: C_27  and  C_28 
REMARK    6  A    between atoms: C_28  and  C_29 
ROOT
HETATM    1  C   UNL     1       6.125  11.583  20.617  0.00  0.00     0.066 C 
HETATM    2  C   UNL     1       7.418  11.831  21.126  0.00  0.00     0.035 C 
HETATM    3  C   UNL     1       5.040  12.232  21.239  0.00  0.00     0.083 C 
HETATM    4  C   UNL     1       5.197  13.028  22.382  0.00  0.00     0.069 C 
HETATM    5  C   UNL     1       6.478  13.083  22.942  0.00  0.00     0.065 A 
HETATM    6  C   UNL     1       7.589  12.470  22.370  0.00  0.00     0.020 A 
HETATM    7  N   UNL     1       6.951  13.696  24.067  0.00  0.00    -0.277 N 
HETATM    8  H   UNL     1       6.439  14.292  24.706  0.00  0.00     0.189 HD
HETATM    9  N   UNL     1       8.237  13.425  24.341  0.00  0.00    -0.178 NA
HETATM   10  C   UNL     1       8.645  12.647  23.320  0.00  0.00     0.071 A 
ENDROOT
BRANCH   1  11
HETATM   11  C   UNL     1       5.849  10.629  19.461  0.00  0.00     0.260 C 
HETATM   12  N   UNL     1       5.319   9.324  19.685  0.00  0.00    -0.318 N 
HETATM   13  C   UNL     1       4.954   8.871  21.038  0.00  0.00     0.159 C 
HETATM   14  O   UNL     1       6.073  11.117  18.359  0.00  0.00    -0.267 OA
BRANCH  12  15
HETATM   15  C   UNL     1       4.968   8.403  18.607  0.00  0.00     0.037 C 
HETATM   16  C   UNL     1       5.429   7.069  18.624  0.00  0.00     0.032 C 
HETATM   17  C   UNL     1       4.952   6.087  17.736  0.00  0.00     0.031 C 
HETATM   18  C   UNL     1       4.026   6.382  16.743  0.00  0.00     0.030 C 
HETATM   19  C   UNL     1       3.687   7.737  16.631  0.00  0.00     0.031 C 
HETATM   20  C   UNL     1       4.141   8.723  17.536  0.00  0.00     0.032 C 
BRANCH  18  21
HETATM   21  N   UNL     1       3.504   5.421  15.907  0.00  0.00    -0.377 N 
HETATM   22  C   UNL     1       3.330   4.003  16.269  0.00  0.00     0.149 C 
HETATM   23  C   UNL     1       3.847   3.135  15.104  0.00  0.00     0.187 C 
HETATM   24  O   UNL     1       3.215   3.467  13.854  0.00  0.00    -0.388 OA
HETATM   25  C   UNL     1       3.417   4.858  13.540  0.00  0.00     0.187 C 
HETATM   26  C   UNL     1       2.838   5.758  14.638  0.00  0.00     0.149 C 
ENDBRANCH  18  21
ENDBRANCH  12  15
ENDBRANCH   1  11
BRANCH   3  27
HETATM   27  O   UNL     1       3.746  12.145  20.782  0.00  0.00    -0.360 OA
HETATM   28  H   UNL     1       3.758  11.635  19.941  0.00  0.00     0.217 HD
ENDBRANCH   3  27
BRANCH  10  29
HETATM   29  C   UNL     1      10.055  12.107  23.335  0.00  0.00     0.100 C 
BRANCH  29  30
HETATM   30  C   UNL     1      11.086  13.192  23.650  0.00  0.00    -0.052 A 
HETATM   31  C   UNL     1      11.505  14.145  22.711  0.00  0.00     0.007 A 
HETATM   32  C   UNL     1      12.454  15.117  23.039  0.00  0.00     0.001 A 
HETATM   33  C   UNL     1      13.074  15.107  24.284  0.00  0.00     0.007 A 
HETATM   34  C   UNL     1      12.779  14.099  25.205  0.00  0.00    -0.061 A 
HETATM   35  C   UNL     1      11.760  13.173  24.897  0.00  0.00     0.014 A 
HETATM   36  C   UNL     1      13.564  14.036  26.486  0.00  0.00     0.048 C 
ENDBRANCH  29  30
ENDBRANCH  10  29
TORSDOF 6
ENDMDL
MODEL 8
REMARK VINA RESULT:    -8.247      5.841      7.966
REMARK INTER + INTRA:         -12.100
REMARK INTER:                 -10.874
REMARK INTRA:                  -1.226
REMARK UNBOUND:                -1.202
REMARK  6 active torsions:
REMARK  status: ('A' for Active; 'I' for Inactive)
REMARK    1  A    between atoms: N_6  and  C_7 
REMARK    2  A    between atoms: C_12  and  N_13 
REMARK       I    between atoms: N_13  and  C_15 
REMARK    3  A    between atoms: C_15  and  C_17 
REMARK    4  A    between atoms: C_19  and  O_20 
REMARK    5  A    between atoms: C_27  and  C_28 
REMARK    6  A    between atoms: C_28  and  C_29 
ROOT
HETATM    1  C   UNL     1       5.465   8.856  22.871  0.00  0.00     0.066 C 
HETATM    2  C   UNL     1       6.420   9.889  22.764  0.00  0.00     0.035 C 
HETATM    3  C   UNL     1       4.995   8.270  21.679  0.00  0.00     0.083 C 
HETATM    4  C   UNL     1       5.375   8.739  20.413  0.00  0.00     0.069 C 
HETATM    5  C   UNL     1       6.180   9.881  20.378  0.00  0.00     0.065 A 
HETATM    6  C   UNL     1       6.680  10.500  21.521  0.00  0.00     0.020 A 
HETATM    7  N   UNL     1       6.663  10.620  19.335  0.00  0.00    -0.277 N 
HETATM    8  H   UNL     1       6.556  10.433  18.345  0.00  0.00     0.189 HD
HETATM    9  N   UNL     1       7.319  11.731  19.706  0.00  0.00    -0.178 NA
HETATM   10  C   UNL     1       7.320  11.692  21.052  0.00  0.00     0.071 A 
ENDROOT
BRANCH   1  11
HETATM   11  C   UNL     1       4.898   8.375  24.202  0.00  0.00     0.260 C 
HETATM   12  N   UNL     1       3.815   9.052  24.836  0.00  0.00    -0.318 N 
HETATM   13  C   UNL     1       3.155  10.204  24.197  0.00  0.00     0.159 C 
HETATM   14  O   UNL     1       5.424   7.349  24.616  0.00  0.00    -0.267 OA
BRANCH  12  15
HETATM   15  C   UNL     1       3.188   8.587  26.072  0.00  0.00     0.037 C 
HETATM   16  C   UNL     1       1.844   8.160  26.079  0.00  0.00     0.032 C 
HETATM   17  C   UNL     1       1.257   7.508  27.178  0.00  0.00     0.031 C 
HETATM   18  C   UNL     1       1.956   7.283  28.358  0.00  0.00     0.030 C 
HETATM   19  C   UNL     1       3.240   7.844  28.403  0.00  0.00     0.031 C 
HETATM   20  C   UNL     1       3.844   8.477  27.293  0.00  0.00     0.032 C 
BRANCH  18  21
HETATM   21  N   UNL     1       1.417   6.592  29.419  0.00  0.00    -0.377 N 
HETATM   22  C   UNL     1       0.728   7.218  30.561  0.00  0.00     0.149 C 
HETATM   23  C   UNL     1       1.254   6.576  31.860  0.00  0.00     0.187 C 
HETATM   24  O   UNL     1       1.121   5.142  31.853  0.00  0.00    -0.388 OA
HETATM   25  C   UNL     1       1.813   4.576  30.725  0.00  0.00     0.187 C 
HETATM   26  C   UNL     1       1.258   5.129  29.407  0.00  0.00     0.149 C 
ENDBRANCH  18  21
ENDBRANCH  12  15
ENDBRANCH   1  11
BRANCH   3  27
HETATM   27  O   UNL     1       4.135   7.198  21.653  0.00  0.00    -0.360 OA
HETATM   28  H   UNL     1       3.717   7.127  22.540  0.00  0.00     0.217 HD
ENDBRANCH   3  27
BRANCH  10  29
HETATM   29  C   UNL     1       7.942  12.838  21.814  0.00  0.00     0.100 C 
BRANCH  29  30
HETATM   30  C   UNL     1       6.893  13.813  22.347  0.00  0.00    -0.052 A 
HETATM   31  C   UNL     1       7.221  15.028  22.966  0.00  0.00     0.007 A 
HETATM   32  C   UNL     1       6.231  15.890  23.445  0.00  0.00     0.001 A 
HETATM   33  C   UNL     1       4.890  15.518  23.398  0.00  0.00     0.007 A 
HETATM   34  C   UNL     1       4.528  14.263  22.906  0.00  0.00    -0.061 A 
HETATM   35  C   UNL     1       5.527  13.437  22.349  0.00  0.00     0.014 A 
HETATM   36  C   UNL     1       3.088  13.838  22.995  0.00  0.00     0.048 C 
ENDBRANCH  29  30
ENDBRANCH  10  29
TORSDOF 6
ENDMDL
MODEL 9
REMARK VINA RESULT:    -8.237      2.015      4.089
REMARK INTER + INTRA:         -12.087
REMARK INTER:                 -10.885
REMARK INTRA:                  -1.202
REMARK UNBOUND:                -1.202
REMARK  6 active torsions:
REMARK  status: ('A' for Active; 'I' for Inactive)
REMARK    1  A    between atoms: N_6  and  C_7 
REMARK    2  A    between atoms: C_12  and  N_13 
REMARK       I    between atoms: N_13  and  C_15 
REMARK    3  A    between atoms: C_15  and  C_17 
REMARK    4  A    between atoms: C_19  and  O_20 
REMARK    5  A    between atoms: C_27  and  C_28 
REMARK    6  A    between atoms: C_28  and  C_29 
ROOT
HETATM    1  C   UNL     1       6.932  13.706  23.369  0.00  0.00     0.066 C 
HETATM    2  C   UNL     1       8.316  13.980  23.405  0.00  0.00     0.035 C 
HETATM    3  C   UNL     1       6.152  14.125  24.465  0.00  0.00     0.083 C 
HETATM    4  C   UNL     1       6.716  14.713  25.606  0.00  0.00     0.069 C 
HETATM    5  C   UNL     1       8.112  14.788  25.653  0.00  0.00     0.065 A 
HETATM    6  C   UNL     1       8.935  14.397  24.600  0.00  0.00     0.020 A 
HETATM    7  N   UNL     1       8.965  15.230  26.624  0.00  0.00    -0.277 N 
HETATM    8  H   UNL     1       8.722  15.650  27.514  0.00  0.00     0.189 HD
HETATM    9  N   UNL     1      10.264  15.038  26.344  0.00  0.00    -0.178 NA
HETATM   10  C   UNL     1      10.269  14.501  25.109  0.00  0.00     0.071 A 
ENDROOT
BRANCH   1  11
HETATM   11  C   UNL     1       6.258  12.955  22.228  0.00  0.00     0.260 C 
HETATM   12  N   UNL     1       6.505  11.568  22.002  0.00  0.00    -0.318 N 
HETATM   13  C   UNL     1       7.372  10.791  22.905  0.00  0.00     0.159 C 
HETATM   14  O   UNL     1       5.466  13.639  21.590  0.00  0.00    -0.267 OA
BRANCH  12  15
HETATM   15  C   UNL     1       5.827  10.787  20.971  0.00  0.00     0.037 C 
HETATM   16  C   UNL     1       5.770  11.251  19.640  0.00  0.00     0.032 C 
HETATM   17  C   UNL     1       5.324  10.451  18.572  0.00  0.00     0.031 C 
HETATM   18  C   UNL     1       4.858   9.156  18.769  0.00  0.00     0.030 C 
HETATM   19  C   UNL     1       4.770   8.754  20.109  0.00  0.00     0.031 C 
HETATM   20  C   UNL     1       5.242   9.543  21.183  0.00  0.00     0.032 C 
BRANCH  18  21
HETATM   21  N   UNL     1       4.475   8.340  17.729  0.00  0.00    -0.377 N 
HETATM   22  C   UNL     1       3.579   8.746  16.633  0.00  0.00     0.149 C 
HETATM   23  C   UNL     1       2.540   7.630  16.412  0.00  0.00     0.187 C 
HETATM   24  O   UNL     1       3.156   6.350  16.175  0.00  0.00    -0.388 OA
HETATM   25  C   UNL     1       4.016   5.993  17.273  0.00  0.00     0.187 C 
HETATM   26  C   UNL     1       5.118   7.041  17.470  0.00  0.00     0.149 C 
ENDBRANCH  18  21
ENDBRANCH  12  15
ENDBRANCH   1  11
BRANCH   3  27
HETATM   27  O   UNL     1       4.784  13.999  24.509  0.00  0.00    -0.360 OA
HETATM   28  H   UNL     1       4.398  14.904  24.513  0.00  0.00     0.217 HD
ENDBRANCH   3  27
BRANCH  10  29
HETATM   29  C   UNL     1      11.589  14.104  24.493  0.00  0.00     0.100 C 
BRANCH  29  30
HETATM   30  C   UNL     1      11.452  12.901  23.560  0.00  0.00    -0.052 A 
HETATM   31  C   UNL     1      11.549  13.000  22.164  0.00  0.00     0.007 A 
HETATM   32  C   UNL     1      11.413  11.875  21.346  0.00  0.00     0.001 A 
HETATM   33  C   UNL     1      11.085  10.639  21.895  0.00  0.00     0.007 A 
HETATM   34  C   UNL     1      10.854  10.521  23.267  0.00  0.00    -0.061 A 
HETATM   35  C   UNL     1      11.077  11.643  24.093  0.00  0.00     0.014 A 
HETATM   36  C   UNL     1      10.370   9.204  23.809  0.00  0.00     0.048 C 
ENDBRANCH  29  30
ENDBRANCH  10  29
TORSDOF 6
ENDMDL
