MODEL 1
REMARK VINA RESULT:    -8.693      0.000      0.000
REMARK INTER + INTRA:         -12.956
REMARK INTER:                 -11.906
REMARK INTRA:                  -1.050
REMARK UNBOUND:                -1.469
REMARK  6 active torsions:
REMARK  status: ('A' for Active; 'I' for Inactive)
REMARK       I    between atoms: C_2  and  N_3 
REMARK    1  A    between atoms: C_2  and  C_17 
REMARK    2  A    between atoms: N_3  and  C_5 
REMARK    3  A    between atoms: C_8  and  N_9 
REMARK    4  A    between atoms: C_18  and  O_19 
REMARK    5  A    between atoms: C_25  and  C_26 
REMARK    6  A    between atoms: C_26  and  C_27 
ROOT
HETATM    1  C   UNL     1       6.924  12.081  20.823  0.00  0.00     0.066 A 
HETATM    2  C   UNL     1       8.288  12.385  21.008  0.00  0.00     0.083 A 
HETATM    3  C   UNL     1       8.721  13.414  21.853  0.00  0.00     0.069 A 
HETATM    4  C   UNL     1       7.732  14.138  22.522  0.00  0.00     0.065 A 
HETATM    5  N   UNL     1       7.795  15.213  23.368  0.00  0.00    -0.277 N 
HETATM    6  H   UNL     1       8.625  15.714  23.666  0.00  0.00     0.189 HD
HETATM    7  N   UNL     1       6.593  15.661  23.781  0.00  0.00    -0.178 NA
HETATM    8  C   UNL     1       5.716  14.856  23.167  0.00  0.00     0.067 A 
HETATM    9  C   UNL     1       6.377  13.893  22.353  0.00  0.00     0.019 A 
HETATM   10  C   UNL     1       5.967  12.893  21.449  0.00  0.00     0.035 A 
ENDROOT
BRANCH   1  11
HETATM   11  C   UNL     1       6.532  11.002  19.861  0.00  0.00     0.260 C 
HETATM   12  O   UNL     1       6.970  11.194  18.725  0.00  0.00    -0.267 OA
HETATM   13  N   UNL     1       5.734   9.896  20.240  0.00  0.00    -0.318 N 
HETATM   14  C   UNL     1       5.436   9.577  21.642  0.00  0.00     0.159 C 
BRANCH  13  15
HETATM   15  C   UNL     1       5.209   8.953  19.262  0.00  0.00     0.037 A 
HETATM   16  C   UNL     1       4.358   9.310  18.210  0.00  0.00     0.032 A 
HETATM   17  C   UNL     1       3.875   8.362  17.280  0.00  0.00     0.031 A 
HETATM   18  C   UNL     1       4.209   7.010  17.367  0.00  0.00     0.030 A 
HETATM   19  C   UNL     1       5.072   6.658  18.409  0.00  0.00     0.031 A 
HETATM   20  C   UNL     1       5.556   7.596  19.333  0.00  0.00     0.032 A 
BRANCH  18  21
HETATM   21  N   UNL     1       3.795   6.047  16.463  0.00  0.00    -0.377 N 
HETATM   22  C   UNL     1       3.080   6.386  15.221  0.00  0.00     0.149 C 
HETATM   23  C   UNL     1       3.323   5.259  14.194  0.00  0.00     0.187 C 
HETATM   24  O   UNL     1       2.932   3.970  14.702  0.00  0.00    -0.388 OA
HETATM   25  C   UNL     1       3.651   3.669  15.912  0.00  0.00     0.187 C 
HETATM   26  C   UNL     1       3.390   4.727  16.992  0.00  0.00     0.149 C 
ENDBRANCH  18  21
ENDBRANCH  13  15
ENDBRANCH   1  11
BRANCH   2  27
HETATM   27  O   UNL     1       9.292  11.720  20.343  0.00  0.00    -0.360 OA
HETATM   28  H   UNL     1       8.861  11.114  19.697  0.00  0.00     0.217 HD
ENDBRANCH   2  27
BRANCH   8  29
HETATM   29  C   UNL     1       4.248  15.130  23.199  0.00  0.00     0.066 C 
BRANCH  29  30
HETATM   30  C   UNL     1       3.255  14.024  23.611  0.00  0.00    -0.009 C 
HETATM   31  C   UNL     1       2.217  14.378  24.701  0.00  0.00     0.005 C 
HETATM   32  C   UNL     1       0.741  14.442  24.292  0.00  0.00     0.000 C 
HETATM   33  C   UNL     1       0.358  13.480  23.178  0.00  0.00     0.000 C 
HETATM   34  C   UNL     1       1.301  13.651  22.002  0.00  0.00     0.000 C 
HETATM   35  C   UNL     1       2.702  13.238  22.415  0.00  0.00     0.005 C 
ENDBRANCH  29  30
ENDBRANCH   8  29
TORSDOF 6
ENDMDL
MODEL 2
REMARK VINA RESULT:    -8.476      5.796      8.025
REMARK INTER + INTRA:         -12.670
REMARK INTER:                 -11.029
REMARK INTRA:                  -1.641
REMARK UNBOUND:                -1.469
REMARK  6 active torsions:
REMARK  status: ('A' for Active; 'I' for Inactive)
REMARK       I    between atoms: C_2  and  N_3 
REMARK    1  A    between atoms: C_2  and  C_17 
REMARK    2  A    between atoms: N_3  and  C_5 
REMARK    3  A    between atoms: C_8  and  N_9 
REMARK    4  A    between atoms: C_18  and  O_19 
REMARK    5  A    between atoms: C_25  and  C_26 
REMARK    6  A    between atoms: C_26  and  C_27 
ROOT
HETATM    1  C   UNL     1       7.811  14.269  24.803  0.00  0.00     0.066 A 
HETATM    2  C   UNL     1       8.315  14.913  25.952  0.00  0.00     0.083 A 
HETATM    3  C   UNL     1       9.682  15.157  26.139  0.00  0.00     0.069 A 
HETATM    4  C   UNL     1      10.541  14.735  25.122  0.00  0.00     0.065 A 
HETATM    5  N   UNL     1      11.904  14.771  24.998  0.00  0.00    -0.277 N 
HETATM    6  H   UNL     1      12.574  15.121  25.675  0.00  0.00     0.189 HD
HETATM    7  N   UNL     1      12.370  14.215  23.863  0.00  0.00    -0.178 NA
HETATM    8  C   UNL     1      11.268  13.788  23.232  0.00  0.00     0.067 A 
HETATM    9  C   UNL     1      10.095  14.075  23.986  0.00  0.00     0.019 A 
HETATM   10  C   UNL     1       8.722  13.787  23.854  0.00  0.00     0.035 A 
ENDROOT
BRANCH   1  11
HETATM   11  C   UNL     1       6.343  13.993  24.698  0.00  0.00     0.260 C 
HETATM   12  O   UNL     1       5.987  13.034  25.386  0.00  0.00    -0.267 OA
HETATM   13  N   UNL     1       5.480  14.759  23.878  0.00  0.00    -0.318 N 
HETATM   14  C   UNL     1       5.889  16.031  23.267  0.00  0.00     0.159 C 
BRANCH  13  15
HETATM   15  C   UNL     1       4.096  14.372  23.641  0.00  0.00     0.037 A 
HETATM   16  C   UNL     1       2.998  14.973  24.268  0.00  0.00     0.032 A 
HETATM   17  C   UNL     1       1.670  14.568  24.004  0.00  0.00     0.031 A 
HETATM   18  C   UNL     1       1.378  13.535  23.112  0.00  0.00     0.030 A 
HETATM   19  C   UNL     1       2.476  12.948  22.475  0.00  0.00     0.031 A 
HETATM   20  C   UNL     1       3.796  13.348  22.732  0.00  0.00     0.032 A 
BRANCH  18  21
HETATM   21  N   UNL     1       0.097  13.125  22.790  0.00  0.00    -0.377 N 
HETATM   22  C   UNL     1      -0.670  12.192  23.634  0.00  0.00     0.149 C 
HETATM   23  C   UNL     1      -2.174  12.428  23.382  0.00  0.00     0.187 C 
HETATM   24  O   UNL     1      -2.518  12.296  21.990  0.00  0.00    -0.388 OA
HETATM   25  C   UNL     1      -1.756  13.223  21.196  0.00  0.00     0.187 C 
HETATM   26  C   UNL     1      -0.249  12.986  21.359  0.00  0.00     0.149 C 
ENDBRANCH  18  21
ENDBRANCH  13  15
ENDBRANCH   1  11
BRANCH   2  27
HETATM   27  O   UNL     1       7.508  15.314  26.991  0.00  0.00    -0.360 OA
HETATM   28  H   UNL     1       7.535  16.298  27.018  0.00  0.00     0.217 HD
ENDBRANCH   2  27
BRANCH   8  29
HETATM   29  C   UNL     1      11.348  12.933  22.011  0.00  0.00     0.066 C 
BRANCH  29  30
HETATM   30  C   UNL     1      10.880  11.464  22.052  0.00  0.00    -0.009 C 
HETATM   31  C   UNL     1      11.018  10.717  23.399  0.00  0.00     0.005 C 
HETATM   32  C   UNL     1       9.733  10.312  24.130  0.00  0.00     0.000 C 
HETATM   33  C   UNL     1       8.566   9.988  23.210  0.00  0.00     0.000 C 
HETATM   34  C   UNL     1       8.350  11.125  22.230  0.00  0.00     0.000 C 
HETATM   35  C   UNL     1       9.555  11.235  21.313  0.00  0.00     0.005 C 
ENDBRANCH  29  30
ENDBRANCH   8  29
TORSDOF 6
ENDMDL
MODEL 3
REMARK VINA RESULT:    -8.138      3.834      6.482
REMARK INTER + INTRA:         -12.223
REMARK INTER:                 -11.078
REMARK INTRA:                  -1.145
REMARK UNBOUND:                -1.469
REMARK  6 active torsions:
REMARK  status: ('A' for Active; 'I' for Inactive)
REMARK       I    between atoms: C_2  and  N_3 
REMARK    1  A    between atoms: C_2  and  C_17 
REMARK    2  A    between atoms: N_3  and  C_5 
REMARK    3  A    between atoms: C_8  and  N_9 
REMARK    4  A    between atoms: C_18  and  O_19 
REMARK    5  A    between atoms: C_25  and  C_26 
REMARK    6  A    between atoms: C_26  and  C_27 
ROOT
HETATM    1  C   UNL     1       7.172  13.133  23.790  0.00  0.00     0.066 A 
HETATM    2  C   UNL     1       6.484  14.242  24.324  0.00  0.00     0.083 A 
HETATM    3  C   UNL     1       7.049  15.085  25.290  0.00  0.00     0.069 A 
HETATM    4  C   UNL     1       8.347  14.782  25.707  0.00  0.00     0.065 A 
HETATM    5  N   UNL     1       9.166  15.352  26.645  0.00  0.00    -0.277 N 
HETATM    6  H   UNL     1       8.955  16.138  27.250  0.00  0.00     0.189 HD
HETATM    7  N   UNL     1      10.354  14.733  26.790  0.00  0.00    -0.178 NA
HETATM    8  C   UNL     1      10.298  13.712  25.923  0.00  0.00     0.067 A 
HETATM    9  C   UNL     1       9.054  13.688  25.231  0.00  0.00     0.019 A 
HETATM   10  C   UNL     1       8.438  12.821  24.307  0.00  0.00     0.035 A 
ENDROOT
BRANCH   1  11
HETATM   11  C   UNL     1       6.484  12.244  22.801  0.00  0.00     0.260 C 
HETATM   12  O   UNL     1       5.459  11.731  23.254  0.00  0.00    -0.267 OA
HETATM   13  N   UNL     1       6.984  12.025  21.496  0.00  0.00    -0.318 N 
HETATM   14  C   UNL     1       8.064  12.834  20.915  0.00  0.00     0.159 C 
BRANCH  13  15
HETATM   15  C   UNL     1       6.412  11.023  20.608  0.00  0.00     0.037 A 
HETATM   16  C   UNL     1       6.436   9.646  20.864  0.00  0.00     0.032 A 
HETATM   17  C   UNL     1       5.863   8.708  19.976  0.00  0.00     0.031 A 
HETATM   18  C   UNL     1       5.253   9.100  18.784  0.00  0.00     0.030 A 
HETATM   19  C   UNL     1       5.216  10.477  18.538  0.00  0.00     0.031 A 
HETATM   20  C   UNL     1       5.781  11.412  19.418  0.00  0.00     0.032 A 
BRANCH  18  21
HETATM   21  N   UNL     1       4.644   8.228  17.898  0.00  0.00    -0.377 N 
HETATM   22  C   UNL     1       5.253   6.944  17.511  0.00  0.00     0.149 C 
HETATM   23  C   UNL     1       4.129   5.983  17.071  0.00  0.00     0.187 C 
HETATM   24  O   UNL     1       3.327   6.536  16.010  0.00  0.00    -0.388 OA
HETATM   25  C   UNL     1       2.745   7.786  16.423  0.00  0.00     0.187 C 
HETATM   26  C   UNL     1       3.827   8.803  16.808  0.00  0.00     0.149 C 
ENDBRANCH  18  21
ENDBRANCH  13  15
ENDBRANCH   1  11
BRANCH   2  27
HETATM   27  O   UNL     1       5.193  14.556  23.966  0.00  0.00    -0.360 OA
HETATM   28  H   UNL     1       4.723  14.831  24.787  0.00  0.00     0.217 HD
ENDBRANCH   2  27
BRANCH   8  29
HETATM   29  C   UNL     1      11.345  12.648  25.901  0.00  0.00     0.066 C 
BRANCH  29  30
HETATM   30  C   UNL     1      12.835  13.020  25.752  0.00  0.00    -0.009 C 
HETATM   31  C   UNL     1      13.180  14.177  24.786  0.00  0.00     0.005 C 
HETATM   32  C   UNL     1      13.742  15.470  25.388  0.00  0.00     0.000 C 
HETATM   33  C   UNL     1      14.580  15.264  26.640  0.00  0.00     0.000 C 
HETATM   34  C   UNL     1      13.807  14.435  27.649  0.00  0.00     0.000 C 
HETATM   35  C   UNL     1      13.585  13.041  27.090  0.00  0.00     0.005 C 
ENDBRANCH  29  30
ENDBRANCH   8  29
TORSDOF 6
ENDMDL
MODEL 4
REMARK VINA RESULT:    -8.127      2.013      4.420
REMARK INTER + INTRA:         -12.208
REMARK INTER:                 -10.702
REMARK INTRA:                  -1.506
REMARK UNBOUND:                -1.469
REMARK  6 active torsions:
REMARK  status: ('A' for Active; 'I' for Inactive)
REMARK       I    between atoms: C_2  and  N_3 
REMARK    1  A    between atoms: C_2  and  C_17 
REMARK    2  A    between atoms: N_3  and  C_5 
REMARK    3  A    between atoms: C_8  and  N_9 
REMARK    4  A    between atoms: C_18  and  O_19 
REMARK    5  A    between atoms: C_25  and  C_26 
REMARK    6  A    between atoms: C_26  and  C_27 
ROOT
HETATM    1  C   UNL     1       5.271  11.744  20.919  0.00  0.00     0.066 A 
HETATM    2  C   UNL     1       4.308  12.339  21.760  0.00  0.00     0.083 A 
HETATM    3  C   UNL     1       4.576  13.486  22.517  0.00  0.00     0.069 A 
HETATM    4  C   UNL     1       5.856  14.031  22.402  0.00  0.00     0.065 A 
HETATM    5  N   UNL     1       6.461  15.095  23.018  0.00  0.00    -0.277 N 
HETATM    6  H   UNL     1       6.061  15.706  23.722  0.00  0.00     0.189 HD
HETATM    7  N   UNL     1       7.747  15.280  22.663  0.00  0.00    -0.178 NA
HETATM    8  C   UNL     1       7.993  14.289  21.796  0.00  0.00     0.067 A 
HETATM    9  C   UNL     1       6.845  13.467  21.609  0.00  0.00     0.019 A 
HETATM   10  C   UNL     1       6.567  12.277  20.907  0.00  0.00     0.035 A 
ENDROOT
BRANCH   1  11
HETATM   11  C   UNL     1       4.929  10.486  20.182  0.00  0.00     0.260 C 
HETATM   12  O   UNL     1       5.037   9.478  20.882  0.00  0.00    -0.267 OA
HETATM   13  N   UNL     1       4.539  10.482  18.821  0.00  0.00    -0.318 N 
HETATM   14  C   UNL     1       4.191  11.710  18.094  0.00  0.00     0.159 C 
BRANCH  13  15
HETATM   15  C   UNL     1       4.387   9.247  18.066  0.00  0.00     0.037 A 
HETATM   16  C   UNL     1       5.406   8.302  17.899  0.00  0.00     0.032 A 
HETATM   17  C   UNL     1       5.212   7.113  17.160  0.00  0.00     0.031 A 
HETATM   18  C   UNL     1       3.997   6.820  16.542  0.00  0.00     0.030 A 
HETATM   19  C   UNL     1       2.975   7.758  16.723  0.00  0.00     0.031 A 
HETATM   20  C   UNL     1       3.162   8.938  17.457  0.00  0.00     0.032 A 
BRANCH  18  21
HETATM   21  N   UNL     1       3.742   5.655  15.839  0.00  0.00    -0.377 N 
HETATM   22  C   UNL     1       3.139   5.659  14.495  0.00  0.00     0.149 C 
HETATM   23  C   UNL     1       3.560   4.365  13.767  0.00  0.00     0.187 C 
HETATM   24  O   UNL     1       3.202   3.185  14.510  0.00  0.00    -0.388 OA
HETATM   25  C   UNL     1       3.810   3.210  15.814  0.00  0.00     0.187 C 
HETATM   26  C   UNL     1       3.370   4.448  16.607  0.00  0.00     0.149 C 
ENDBRANCH  18  21
ENDBRANCH  13  15
ENDBRANCH   1  11
BRANCH   2  27
HETATM   27  O   UNL     1       3.047  11.816  21.928  0.00  0.00    -0.360 OA
HETATM   28  H   UNL     1       2.749  11.484  21.050  0.00  0.00     0.217 HD
ENDBRANCH   2  27
BRANCH   8  29
HETATM   29  C   UNL     1       9.373  14.008  21.301  0.00  0.00     0.066 C 
BRANCH  29  30
HETATM   30  C   UNL     1      10.342  13.142  22.134  0.00  0.00    -0.009 C 
HETATM   31  C   UNL     1      10.659  13.621  23.569  0.00  0.00     0.005 C 
HETATM   32  C   UNL     1      10.158  12.765  24.738  0.00  0.00     0.000 C 
HETATM   33  C   UNL     1      10.098  11.275  24.442  0.00  0.00     0.000 C 
HETATM   34  C   UNL     1       9.320  11.033  23.161  0.00  0.00     0.000 C 
HETATM   35  C   UNL     1      10.076  11.638  21.992  0.00  0.00     0.005 C 
ENDBRANCH  29  30
ENDBRANCH   8  29
TORSDOF 6
ENDMDL
MODEL 5
REMARK VINA RESULT:    -8.030      5.658      9.397
REMARK INTER + INTRA:         -12.080
REMARK INTER:                 -11.332
REMARK INTRA:                  -0.748
REMARK UNBOUND:                -1.469
REMARK  6 active torsions:
REMARK  status: ('A' for Active; 'I' for Inactive)
REMARK       I    between atoms: C_2  and  N_3 
REMARK    1  A    between atoms: C_2  and  C_17 
REMARK    2  A    between atoms: N_3  and  C_5 
REMARK    3  A    between atoms: C_8  and  N_9 
REMARK    4  A    between atoms: C_18  and  O_19 
REMARK    5  A    between atoms: C_25  and  C_26 
REMARK    6  A    between atoms: C_26  and  C_27 
ROOT
HETATM    1  C   UNL     1       0.053  12.878  22.766  0.00  0.00     0.066 A 
HETATM    2  C   UNL     1      -0.991  13.238  21.889  0.00  0.00     0.083 A 
HETATM    3  C   UNL     1      -2.329  12.907  22.136  0.00  0.00     0.069 A 
HETATM    4  C   UNL     1      -2.596  12.198  23.309  0.00  0.00     0.065 A 
HETATM    5  N   UNL     1      -3.754  11.684  23.829  0.00  0.00    -0.277 N 
HETATM    6  H   UNL     1      -4.681  11.720  23.418  0.00  0.00     0.189 HD
HETATM    7  N   UNL     1      -3.591  11.014  24.986  0.00  0.00    -0.178 NA
HETATM    8  C   UNL     1      -2.273  11.082  25.220  0.00  0.00     0.067 A 
HETATM    9  C   UNL     1      -1.600  11.799  24.190  0.00  0.00     0.019 A 
HETATM   10  C   UNL     1      -0.256  12.091  23.885  0.00  0.00     0.035 A 
ENDROOT
BRANCH   1  11
HETATM   11  C   UNL     1       1.467  13.219  22.409  0.00  0.00     0.260 C 
HETATM   12  O   UNL     1       1.756  12.903  21.253  0.00  0.00    -0.267 OA
HETATM   13  N   UNL     1       2.359  13.827  23.324  0.00  0.00    -0.318 N 
HETATM   14  C   UNL     1       1.914  14.403  24.600  0.00  0.00     0.159 C 
BRANCH  13  15
HETATM   15  C   UNL     1       3.775  13.987  23.030  0.00  0.00     0.037 A 
HETATM   16  C   UNL     1       4.546  13.034  22.353  0.00  0.00     0.032 A 
HETATM   17  C   UNL     1       5.919  13.232  22.085  0.00  0.00     0.031 A 
HETATM   18  C   UNL     1       6.589  14.386  22.492  0.00  0.00     0.030 A 
HETATM   19  C   UNL     1       5.815  15.344  23.154  0.00  0.00     0.031 A 
HETATM   20  C   UNL     1       4.451  15.152  23.420  0.00  0.00     0.032 A 
BRANCH  18  21
HETATM   21  N   UNL     1       7.921  14.648  22.223  0.00  0.00    -0.377 N 
HETATM   22  C   UNL     1       8.427  16.011  21.988  0.00  0.00     0.149 C 
HETATM   23  C   UNL     1       9.928  16.045  22.346  0.00  0.00     0.187 C 
HETATM   24  O   UNL     1      10.681  15.061  21.611  0.00  0.00    -0.388 OA
HETATM   25  C   UNL     1      10.165  13.742  21.865  0.00  0.00     0.187 C 
HETATM   26  C   UNL     1       8.688  13.637  21.463  0.00  0.00     0.149 C 
ENDBRANCH  18  21
ENDBRANCH  13  15
ENDBRANCH   1  11
BRANCH   2  27
HETATM   27  O   UNL     1      -0.769  13.906  20.707  0.00  0.00    -0.360 OA
HETATM   28  H   UNL     1      -0.398  13.253  20.070  0.00  0.00     0.217 HD
ENDBRANCH   2  27
BRANCH   8  29
HETATM   29  C   UNL     1      -1.632  10.294  26.314  0.00  0.00     0.066 C 
BRANCH  29  30
HETATM   30  C   UNL     1      -1.048   8.895  26.032  0.00  0.00    -0.009 C 
HETATM   31  C   UNL     1       0.086   8.801  24.986  0.00  0.00     0.005 C 
HETATM   32  C   UNL     1       1.485   8.409  25.477  0.00  0.00     0.000 C 
HETATM   33  C   UNL     1       1.487   7.465  26.669  0.00  0.00     0.000 C 
HETATM   34  C   UNL     1       0.613   8.029  27.775  0.00  0.00     0.000 C 
HETATM   35  C   UNL     1      -0.830   8.067  27.306  0.00  0.00     0.005 C 
ENDBRANCH  29  30
ENDBRANCH   8  29
TORSDOF 6
ENDMDL
MODEL 6
REMARK VINA RESULT:    -7.863      2.570      5.085
REMARK INTER + INTRA:         -11.860
REMARK INTER:                 -10.277
REMARK INTRA:                  -1.584
REMARK UNBOUND:                -1.469
REMARK  6 active torsions:
REMARK  status: ('A' for Active; 'I' for Inactive)
REMARK       I    between atoms: C_2  and  N_3 
REMARK    1  A    between atoms: C_2  and  C_17 
REMARK    2  A    between atoms: N_3  and  C_5 
REMARK    3  A    between atoms: C_8  and  N_9 
REMARK    4  A    between atoms: C_18  and  O_19 
REMARK    5  A    between atoms: C_25  and  C_26 
REMARK    6  A    between atoms: C_26  and  C_27 
ROOT
HETATM    1  C   UNL     1       6.184  13.099  22.926  0.00  0.00     0.066 A 
HETATM    2  C   UNL     1       5.618  14.321  23.344  0.00  0.00     0.083 A 
HETATM    3  C   UNL     1       6.208  15.126  24.327  0.00  0.00     0.069 A 
HETATM    4  C   UNL     1       7.404  14.668  24.882  0.00  0.00     0.065 A 
HETATM    5  N   UNL     1       8.207  15.167  25.872  0.00  0.00    -0.277 N 
HETATM    6  H   UNL     1       8.057  16.006  26.422  0.00  0.00     0.189 HD
HETATM    7  N   UNL     1       9.275  14.396  26.158  0.00  0.00    -0.178 NA
HETATM    8  C   UNL     1       9.152  13.349  25.332  0.00  0.00     0.067 A 
HETATM    9  C   UNL     1       7.986  13.461  24.522  0.00  0.00     0.019 A 
HETATM   10  C   UNL     1       7.339  12.641  23.577  0.00  0.00     0.035 A 
ENDROOT
BRANCH   1  11
HETATM   11  C   UNL     1       5.468  12.263  21.910  0.00  0.00     0.260 C 
HETATM   12  O   UNL     1       4.271  12.126  22.165  0.00  0.00    -0.267 OA
HETATM   13  N   UNL     1       6.125  11.694  20.793  0.00  0.00    -0.318 N 
HETATM   14  C   UNL     1       7.486  12.074  20.394  0.00  0.00     0.159 C 
BRANCH  13  15
HETATM   15  C   UNL     1       5.464  10.738  19.915  0.00  0.00     0.037 A 
HETATM   16  C   UNL     1       5.014  11.042  18.625  0.00  0.00     0.032 A 
HETATM   17  C   UNL     1       4.381  10.081  17.805  0.00  0.00     0.031 A 
HETATM   18  C   UNL     1       4.156   8.775  18.242  0.00  0.00     0.030 A 
HETATM   19  C   UNL     1       4.621   8.468  19.524  0.00  0.00     0.031 A 
HETATM   20  C   UNL     1       5.252   9.419  20.341  0.00  0.00     0.032 A 
BRANCH  18  21
HETATM   21  N   UNL     1       3.576   7.785  17.467  0.00  0.00    -0.377 N 
HETATM   22  C   UNL     1       3.700   7.756  16.000  0.00  0.00     0.149 C 
HETATM   23  C   UNL     1       3.527   6.299  15.523  0.00  0.00     0.187 C 
HETATM   24  O   UNL     1       2.280   5.729  15.966  0.00  0.00    -0.388 OA
HETATM   25  C   UNL     1       2.193   5.769  17.402  0.00  0.00     0.187 C 
HETATM   26  C   UNL     1       2.293   7.208  17.924  0.00  0.00     0.149 C 
ENDBRANCH  18  21
ENDBRANCH  13  15
ENDBRANCH   1  11
BRANCH   2  27
HETATM   27  O   UNL     1       4.424  14.792  22.848  0.00  0.00    -0.360 OA
HETATM   28  H   UNL     1       3.719  14.522  23.481  0.00  0.00     0.217 HD
ENDBRANCH   2  27
BRANCH   8  29
HETATM   29  C   UNL     1      10.031  12.149  25.456  0.00  0.00     0.066 C 
BRANCH  29  30
HETATM   30  C   UNL     1      11.095  11.845  24.381  0.00  0.00    -0.009 C 
HETATM   31  C   UNL     1      10.842  10.627  23.462  0.00  0.00     0.005 C 
HETATM   32  C   UNL     1      10.572  10.893  21.977  0.00  0.00     0.000 C 
HETATM   33  C   UNL     1      11.286  12.115  21.420  0.00  0.00     0.000 C 
HETATM   34  C   UNL     1      11.000  13.322  22.294  0.00  0.00     0.000 C 
HETATM   35  C   UNL     1      11.607  13.104  23.669  0.00  0.00     0.005 C 
ENDBRANCH  29  30
ENDBRANCH   8  29
TORSDOF 6
ENDMDL
MODEL 7
REMARK VINA RESULT:    -7.854      3.140      9.740
REMARK INTER + INTRA:         -11.848
REMARK INTER:                  -9.890
REMARK INTRA:                  -1.958
REMARK UNBOUND:                -1.469
REMARK  6 active torsions:
REMARK  status: ('A' for Active; 'I' for Inactive)
REMARK       I    between atoms: C_2  and  N_3 
REMARK    1  A    between atoms: C_2  and  C_17 
REMARK    2  A    between atoms: N_3  and  C_5 
REMARK    3  A    between atoms: C_8  and  N_9 
REMARK    4  A    between atoms: C_18  and  O_19 
REMARK    5  A    between atoms: C_25  and  C_26 
REMARK    6  A    between atoms: C_26  and  C_27 
ROOT
HETATM    1  C   UNL     1       5.466   9.727  18.662  0.00  0.00     0.066 A 
HETATM    2  C   UNL     1       4.472  10.138  17.750  0.00  0.00     0.083 A 
HETATM    3  C   UNL     1       3.708   9.227  17.010  0.00  0.00     0.069 A 
HETATM    4  C   UNL     1       3.969   7.872  17.217  0.00  0.00     0.065 A 
HETATM    5  N   UNL     1       3.455   6.739  16.644  0.00  0.00    -0.277 N 
HETATM    6  H   UNL     1       2.757   6.684  15.909  0.00  0.00     0.189 HD
HETATM    7  N   UNL     1       4.006   5.594  17.092  0.00  0.00    -0.178 NA
HETATM    8  C   UNL     1       4.924   6.000  17.979  0.00  0.00     0.067 A 
HETATM    9  C   UNL     1       4.953   7.420  18.084  0.00  0.00     0.019 A 
HETATM   10  C   UNL     1       5.750   8.358  18.769  0.00  0.00     0.035 A 
ENDROOT
BRANCH   1  11
HETATM   11  C   UNL     1       6.282  10.759  19.378  0.00  0.00     0.260 C 
HETATM   12  O   UNL     1       7.077  11.338  18.635  0.00  0.00    -0.267 OA
HETATM   13  N   UNL     1       6.144  11.013  20.763  0.00  0.00    -0.318 N 
HETATM   14  C   UNL     1       5.030  10.481  21.560  0.00  0.00     0.159 C 
BRANCH  13  15
HETATM   15  C   UNL     1       7.063  11.883  21.483  0.00  0.00     0.037 A 
HETATM   16  C   UNL     1       6.856  13.256  21.670  0.00  0.00     0.032 A 
HETATM   17  C   UNL     1       7.774  14.062  22.380  0.00  0.00     0.031 A 
HETATM   18  C   UNL     1       8.947  13.539  22.925  0.00  0.00     0.030 A 
HETATM   19  C   UNL     1       9.143  12.165  22.751  0.00  0.00     0.031 A 
HETATM   20  C   UNL     1       8.234  11.360  22.049  0.00  0.00     0.032 A 
BRANCH  18  21
HETATM   21  N   UNL     1       9.859  14.275  23.660  0.00  0.00    -0.377 N 
HETATM   22  C   UNL     1       9.480  15.012  24.879  0.00  0.00     0.149 C 
HETATM   23  C   UNL     1      10.735  15.170  25.763  0.00  0.00     0.187 C 
HETATM   24  O   UNL     1      11.814  15.816  25.062  0.00  0.00    -0.388 OA
HETATM   25  C   UNL     1      12.162  15.070  23.882  0.00  0.00     0.187 C 
HETATM   26  C   UNL     1      10.962  14.940  22.933  0.00  0.00     0.149 C 
ENDBRANCH  18  21
ENDBRANCH  13  15
ENDBRANCH   1  11
BRANCH   2  27
HETATM   27  O   UNL     1       4.207  11.463  17.491  0.00  0.00    -0.360 OA
HETATM   28  H   UNL     1       4.526  11.981  18.266  0.00  0.00     0.217 HD
ENDBRANCH   2  27
BRANCH   8  29
HETATM   29  C   UNL     1       5.907   5.048  18.576  0.00  0.00     0.066 C 
BRANCH  29  30
HETATM   30  C   UNL     1       5.963   4.836  20.103  0.00  0.00    -0.009 C 
HETATM   31  C   UNL     1       7.077   5.578  20.878  0.00  0.00     0.005 C 
HETATM   32  C   UNL     1       6.657   6.686  21.851  0.00  0.00     0.000 C 
HETATM   33  C   UNL     1       5.308   6.458  22.514  0.00  0.00     0.000 C 
HETATM   34  C   UNL     1       4.255   6.174  21.459  0.00  0.00     0.000 C 
HETATM   35  C   UNL     1       4.579   4.863  20.765  0.00  0.00     0.005 C 
ENDBRANCH  29  30
ENDBRANCH   8  29
TORSDOF 6
ENDMDL
MODEL 8
REMARK VINA RESULT:    -7.818      5.582      7.882
REMARK INTER + INTRA:         -11.800
REMARK INTER:                 -10.529
REMARK INTRA:                  -1.272
REMARK UNBOUND:                -1.469
REMARK  6 active torsions:
REMARK  status: ('A' for Active; 'I' for Inactive)
REMARK       I    between atoms: C_2  and  N_3 
REMARK    1  A    between atoms: C_2  and  C_17 
REMARK    2  A    between atoms: N_3  and  C_5 
REMARK    3  A    between atoms: C_8  and  N_9 
REMARK    4  A    between atoms: C_18  and  O_19 
REMARK    5  A    between atoms: C_25  and  C_26 
REMARK    6  A    between atoms: C_26  and  C_27 
ROOT
HETATM    1  C   UNL     1       7.973  13.465  23.237  0.00  0.00     0.066 A 
HETATM    2  C   UNL     1       7.393  14.523  22.506  0.00  0.00     0.083 A 
HETATM    3  C   UNL     1       8.158  15.536  21.915  0.00  0.00     0.069 A 
HETATM    4  C   UNL     1       9.543  15.454  22.074  0.00  0.00     0.065 A 
HETATM    5  N   UNL     1      10.563  16.277  21.678  0.00  0.00    -0.277 N 
HETATM    6  H   UNL     1      10.485  17.156  21.178  0.00  0.00     0.189 HD
HETATM    7  N   UNL     1      11.786  15.868  22.068  0.00  0.00    -0.178 NA
HETATM    8  C   UNL     1      11.549  14.743  22.757  0.00  0.00     0.067 A 
HETATM    9  C   UNL     1      10.157  14.448  22.805  0.00  0.00     0.019 A 
HETATM   10  C   UNL     1       9.360  13.476  23.442  0.00  0.00     0.035 A 
ENDROOT
BRANCH   1  11
HETATM   11  C   UNL     1       7.089  12.447  23.888  0.00  0.00     0.260 C 
HETATM   12  O   UNL     1       6.890  12.681  25.082  0.00  0.00    -0.267 OA
HETATM   13  N   UNL     1       6.560  11.337  23.187  0.00  0.00    -0.318 N 
HETATM   14  C   UNL     1       6.618  11.223  21.724  0.00  0.00     0.159 C 
BRANCH  13  15
HETATM   15  C   UNL     1       5.855  10.260  23.867  0.00  0.00     0.037 A 
HETATM   16  C   UNL     1       6.321   8.941  23.937  0.00  0.00     0.032 A 
HETATM   17  C   UNL     1       5.605   7.927  24.613  0.00  0.00     0.031 A 
HETATM   18  C   UNL     1       4.384   8.180  25.239  0.00  0.00     0.030 A 
HETATM   19  C   UNL     1       3.928   9.501  25.182  0.00  0.00     0.031 A 
HETATM   20  C   UNL     1       4.637  10.511  24.514  0.00  0.00     0.032 A 
BRANCH  18  21
HETATM   21  N   UNL     1       3.662   7.234  25.945  0.00  0.00    -0.377 N 
HETATM   22  C   UNL     1       2.513   7.591  26.795  0.00  0.00     0.149 C 
HETATM   23  C   UNL     1       1.589   6.361  26.909  0.00  0.00     0.187 C 
HETATM   24  O   UNL     1       2.285   5.204  27.409  0.00  0.00    -0.388 OA
HETATM   25  C   UNL     1       3.397   4.881  26.555  0.00  0.00     0.187 C 
HETATM   26  C   UNL     1       4.385   6.052  26.462  0.00  0.00     0.149 C 
ENDBRANCH  18  21
ENDBRANCH  13  15
ENDBRANCH   1  11
BRANCH   2  27
HETATM   27  O   UNL     1       6.033  14.660  22.354  0.00  0.00    -0.360 OA
HETATM   28  H   UNL     1       5.771  15.491  22.814  0.00  0.00     0.217 HD
ENDBRANCH   2  27
BRANCH   8  29
HETATM   29  C   UNL     1      12.626  14.063  23.535  0.00  0.00     0.066 C 
BRANCH  29  30
HETATM   30  C   UNL     1      12.898  14.454  25.002  0.00  0.00    -0.009 C 
HETATM   31  C   UNL     1      11.990  15.541  25.622  0.00  0.00     0.005 C 
HETATM   32  C   UNL     1      11.035  15.123  26.747  0.00  0.00     0.000 C 
HETATM   33  C   UNL     1      11.558  13.995  27.623  0.00  0.00     0.000 C 
HETATM   34  C   UNL     1      11.992  12.827  26.757  0.00  0.00     0.000 C 
HETATM   35  C   UNL     1      13.177  13.245  25.905  0.00  0.00     0.005 C 
ENDBRANCH  29  30
ENDBRANCH   8  29
TORSDOF 6
ENDMDL
MODEL 9
REMARK VINA RESULT:    -7.818      4.991      7.605
REMARK INTER + INTRA:         -11.800
REMARK INTER:                 -10.331
REMARK INTRA:                  -1.469
REMARK UNBOUND:                -1.469
REMARK  6 active torsions:
REMARK  status: ('A' for Active; 'I' for Inactive)
REMARK       I    between atoms: C_2  and  N_3 
REMARK    1  A    between atoms: C_2  and  C_17 
REMARK    2  A    between atoms: N_3  and  C_5 
REMARK    3  A    between atoms: C_8  and  N_9 
REMARK    4  A    between atoms: C_18  and  O_19 
REMARK    5  A    between atoms: C_25  and  C_26 
REMARK    6  A    between atoms: C_26  and  C_27 
ROOT
HETATM    1  C   UNL     1       5.937  11.053  22.008  0.00  0.00     0.066 A 
HETATM    2  C   UNL     1       5.884  10.847  20.614  0.00  0.00     0.083 A 
HETATM    3  C   UNL     1       6.859  11.346  19.741  0.00  0.00     0.069 A 
HETATM    4  C   UNL     1       7.909  12.065  20.316  0.00  0.00     0.065 A 
HETATM    5  N   UNL     1       8.982  12.717  19.770  0.00  0.00    -0.277 N 
HETATM    6  H   UNL     1       9.211  12.809  18.787  0.00  0.00     0.189 HD
HETATM    7  N   UNL     1       9.766  13.341  20.672  0.00  0.00    -0.178 NA
HETATM    8  C   UNL     1       9.169  13.099  21.846  0.00  0.00     0.067 A 
HETATM    9  C   UNL     1       7.991  12.316  21.678  0.00  0.00     0.019 A 
HETATM   10  C   UNL     1       6.964  11.856  22.525  0.00  0.00     0.035 A 
ENDROOT
BRANCH   1  11
HETATM   11  C   UNL     1       4.829  10.537  22.873  0.00  0.00     0.260 C 
HETATM   12  O   UNL     1       3.845  11.279  22.882  0.00  0.00    -0.267 OA
HETATM   13  N   UNL     1       4.932   9.328  23.602  0.00  0.00    -0.318 N 
HETATM   14  C   UNL     1       6.012   8.358  23.380  0.00  0.00     0.159 C 
BRANCH  13  15
HETATM   15  C   UNL     1       3.928   8.928  24.578  0.00  0.00     0.037 A 
HETATM   16  C   UNL     1       2.550   9.101  24.398  0.00  0.00     0.032 A 
HETATM   17  C   UNL     1       1.610   8.694  25.371  0.00  0.00     0.031 A 
HETATM   18  C   UNL     1       2.003   8.108  26.574  0.00  0.00     0.030 A 
HETATM   19  C   UNL     1       3.378   7.921  26.745  0.00  0.00     0.031 A 
HETATM   20  C   UNL     1       4.315   8.322  25.781  0.00  0.00     0.032 A 
BRANCH  18  21
HETATM   21  N   UNL     1       1.123   7.657  27.543  0.00  0.00    -0.377 N 
HETATM   22  C   UNL     1      -0.292   8.064  27.576  0.00  0.00     0.149 C 
HETATM   23  C   UNL     1      -1.098   6.971  28.309  0.00  0.00     0.187 C 
HETATM   24  O   UNL     1      -0.585   6.714  29.630  0.00  0.00    -0.388 OA
HETATM   25  C   UNL     1       0.796   6.315  29.562  0.00  0.00     0.187 C 
HETATM   26  C   UNL     1       1.655   7.400  28.899  0.00  0.00     0.149 C 
ENDBRANCH  18  21
ENDBRANCH  13  15
ENDBRANCH   1  11
BRANCH   2  27
HETATM   27  O   UNL     1       4.850  10.175  20.004  0.00  0.00    -0.360 OA
HETATM   28  H   UNL     1       4.025  10.680  20.189  0.00  0.00     0.217 HD
ENDBRANCH   2  27
BRANCH   8  29
HETATM   29  C   UNL     1       9.609  13.778  23.101  0.00  0.00     0.066 C 
BRANCH  29  30
HETATM   30  C   UNL     1       8.844  15.007  23.635  0.00  0.00    -0.009 C 
HETATM   31  C   UNL     1       7.795  15.646  22.697  0.00  0.00     0.005 C 
HETATM   32  C   UNL     1       6.319  15.551  23.102  0.00  0.00     0.000 C 
HETATM   33  C   UNL     1       6.081  15.553  24.604  0.00  0.00     0.000 C 
HETATM   34  C   UNL     1       6.940  14.490  25.264  0.00  0.00     0.000 C 
HETATM   35  C   UNL     1       8.404  14.852  25.097  0.00  0.00     0.005 C 
ENDBRANCH  29  30
ENDBRANCH   8  29
TORSDOF 6
ENDMDL
