MODEL 1
REMARK VINA RESULT:    -8.312      0.000      0.000
REMARK INTER + INTRA:         -12.824
REMARK INTER:                 -10.697
REMARK INTRA:                  -2.127
REMARK UNBOUND:                -1.596
REMARK  7 active torsions:
REMARK  status: ('A' for Active; 'I' for Inactive)
REMARK    1  A    between atoms: C_6  and  C_7 
REMARK    2  A    between atoms: C_7  and  C_8 
REMARK    3  A    between atoms: C_8  and  C_9 
REMARK    4  A    between atoms: C_10  and  O_11 
REMARK    5  A    between atoms: C_13  and  O_14 
REMARK    6  A    between atoms: C_15  and  C_17 
REMARK    7  A    between atoms: N_21  and  C_22 
ROOT
HETATM    1  C   UNL     1       4.991  14.227  23.454  0.00  0.00    -0.024 C 
HETATM    2  C   UNL     1       4.057  13.533  24.221  0.00  0.00     0.074 C 
HETATM    3  C   UNL     1       3.498  12.341  23.770  0.00  0.00     0.074 C 
HETATM    4  C   UNL     1       3.929  11.792  22.560  0.00  0.00     0.081 C 
HETATM    5  C   UNL     1       4.850  12.465  21.728  0.00  0.00     0.026 C 
HETATM    6  C   UNL     1       5.257  13.742  22.155  0.00  0.00     0.026 C 
ENDROOT
BRANCH   5   7
HETATM    7  C   UNL     1       5.382  11.837  20.484  0.00  0.00     0.073 A 
HETATM    8  C   UNL     1       4.627  11.419  19.392  0.00  0.00     0.053 A 
HETATM    9  C   UNL     1       5.510  10.848  18.485  0.00  0.00     0.141 A 
HETATM   10  N   UNL     1       6.762  10.910  18.906  0.00  0.00    -0.179 NA
HETATM   11  N   UNL     1       6.722  11.549  20.110  0.00  0.00    -0.232 N 
BRANCH  11  12
HETATM   12  C   UNL     1       7.969  11.766  20.785  0.00  0.00     0.080 A 
HETATM   13  C   UNL     1       8.239  11.221  22.059  0.00  0.00     0.062 A 
HETATM   14 CL   UNL     1       7.141  10.275  23.013  0.00  0.00    -0.082 Cl
HETATM   15  C   UNL     1       9.521  11.350  22.618  0.00  0.00     0.026 A 
HETATM   16  C   UNL     1      10.541  12.003  21.930  0.00  0.00     0.002 A 
HETATM   17  C   UNL     1      10.263  12.603  20.709  0.00  0.00     0.002 A 
HETATM   18  C   UNL     1       8.977  12.525  20.167  0.00  0.00     0.033 A 
ENDBRANCH  11  12
ENDBRANCH   5   7
BRANCH   4  19
HETATM   19  O   UNL     1       3.435  10.561  22.209  0.00  0.00    -0.360 OA
HETATM   20  H   UNL     1       4.136   9.893  22.301  0.00  0.00     0.217 HD
ENDBRANCH   4  19
BRANCH   1  21
HETATM   21  C   UNL     1       5.762  15.443  23.949  0.00  0.00     0.047 C 
BRANCH  21  22
HETATM   22  C   UNL     1       7.121  15.114  24.602  0.00  0.00     0.061 C 
BRANCH  22  23
HETATM   23  C   UNL     1       8.345  15.456  23.778  0.00  0.00     0.005 A 
HETATM   24  N   UNL     1       9.587  15.262  24.348  0.00  0.00    -0.370 N 
HETATM   25  C   UNL     1      10.757  15.404  23.649  0.00  0.00     0.084 A 
HETATM   26  H   UNL     1       9.636  14.844  25.273  0.00  0.00     0.165 HD
HETATM   27  C   UNL     1      10.774  15.774  22.361  0.00  0.00    -0.006 A 
HETATM   28  C   UNL     1       9.479  16.040  21.626  0.00  0.00     0.057 A 
HETATM   29  C   UNL     1       8.251  15.838  22.486  0.00  0.00     0.002 A 
ENDBRANCH  22  23
ENDBRANCH  21  22
ENDBRANCH   1  21
BRANCH   2  30
HETATM   30  O   UNL     1       3.639  13.989  25.432  0.00  0.00    -0.360 OA
HETATM   31  H   UNL     1       2.838  13.480  25.650  0.00  0.00     0.217 HD
ENDBRANCH   2  30
TORSDOF 7
ENDMDL
MODEL 2
REMARK VINA RESULT:    -8.259      1.290      1.648
REMARK INTER + INTRA:         -12.752
REMARK INTER:                 -10.554
REMARK INTRA:                  -2.198
REMARK UNBOUND:                -1.596
REMARK  7 active torsions:
REMARK  status: ('A' for Active; 'I' for Inactive)
REMARK    1  A    between atoms: C_6  and  C_7 
REMARK    2  A    between atoms: C_7  and  C_8 
REMARK    3  A    between atoms: C_8  and  C_9 
REMARK    4  A    between atoms: C_10  and  O_11 
REMARK    5  A    between atoms: C_13  and  O_14 
REMARK    6  A    between atoms: C_15  and  C_17 
REMARK    7  A    between atoms: N_21  and  C_22 
ROOT
HETATM    1  C   UNL     1       5.261  14.860  23.596  0.00  0.00    -0.024 C 
HETATM    2  C   UNL     1       3.939  14.751  24.023  0.00  0.00     0.074 C 
HETATM    3  C   UNL     1       3.061  13.850  23.428  0.00  0.00     0.074 C 
HETATM    4  C   UNL     1       3.527  12.991  22.431  0.00  0.00     0.081 C 
HETATM    5  C   UNL     1       4.848  13.077  21.938  0.00  0.00     0.026 C 
HETATM    6  C   UNL     1       5.642  14.113  22.461  0.00  0.00     0.026 C 
ENDROOT
BRANCH   5   7
HETATM    7  C   UNL     1       5.375  12.098  20.942  0.00  0.00     0.073 A 
HETATM    8  C   UNL     1       4.725  11.680  19.784  0.00  0.00     0.053 A 
HETATM    9  C   UNL     1       5.542  10.732  19.183  0.00  0.00     0.141 A 
HETATM   10  N   UNL     1       6.668  10.552  19.852  0.00  0.00    -0.179 NA
HETATM   11  N   UNL     1       6.615  11.405  20.913  0.00  0.00    -0.232 N 
BRANCH  11  12
HETATM   12  C   UNL     1       7.739  11.424  21.805  0.00  0.00     0.080 A 
HETATM   13  C   UNL     1       8.969  12.020  21.452  0.00  0.00     0.062 A 
HETATM   14 CL   UNL     1       9.339  12.759  19.926  0.00  0.00    -0.082 Cl
HETATM   15  C   UNL     1       9.993  12.131  22.407  0.00  0.00     0.026 A 
HETATM   16  C   UNL     1       9.812  11.669  23.708  0.00  0.00     0.002 A 
HETATM   17  C   UNL     1       8.632  11.018  24.042  0.00  0.00     0.002 A 
HETATM   18  C   UNL     1       7.627  10.856  23.084  0.00  0.00     0.033 A 
ENDBRANCH  11  12
ENDBRANCH   5   7
BRANCH   4  19
HETATM   19  O   UNL     1       2.659  12.043  21.951  0.00  0.00    -0.360 OA
HETATM   20  H   UNL     1       2.137  11.680  22.686  0.00  0.00     0.217 HD
ENDBRANCH   4  19
BRANCH   1  21
HETATM   21  C   UNL     1       6.316  15.700  24.303  0.00  0.00     0.047 C 
BRANCH  21  22
HETATM   22  C   UNL     1       7.574  14.915  24.731  0.00  0.00     0.061 C 
BRANCH  22  23
HETATM   23  C   UNL     1       8.854  15.284  24.011  0.00  0.00     0.005 A 
HETATM   24  N   UNL     1      10.046  15.150  24.694  0.00  0.00    -0.370 N 
HETATM   25  C   UNL     1      11.268  15.320  24.098  0.00  0.00     0.084 A 
HETATM   26  H   UNL     1      10.026  14.756  25.630  0.00  0.00     0.165 HD
HETATM   27  C   UNL     1      11.388  15.660  22.807  0.00  0.00    -0.006 A 
HETATM   28  C   UNL     1      10.156  15.860  21.953  0.00  0.00     0.057 A 
HETATM   29  C   UNL     1       8.864  15.631  22.705  0.00  0.00     0.002 A 
ENDBRANCH  22  23
ENDBRANCH  21  22
ENDBRANCH   1  21
BRANCH   2  30
HETATM   30  O   UNL     1       3.441  15.522  25.027  0.00  0.00    -0.360 OA
HETATM   31  H   UNL     1       2.759  14.985  25.468  0.00  0.00     0.217 HD
ENDBRANCH   2  30
TORSDOF 7
ENDMDL
MODEL 3
REMARK VINA RESULT:    -8.143      1.928      5.803
REMARK INTER + INTRA:         -12.595
REMARK INTER:                 -11.321
REMARK INTRA:                  -1.274
REMARK UNBOUND:                -1.596
REMARK  7 active torsions:
REMARK  status: ('A' for Active; 'I' for Inactive)
REMARK    1  A    between atoms: C_6  and  C_7 
REMARK    2  A    between atoms: C_7  and  C_8 
REMARK    3  A    between atoms: C_8  and  C_9 
REMARK    4  A    between atoms: C_10  and  O_11 
REMARK    5  A    between atoms: C_13  and  O_14 
REMARK    6  A    between atoms: C_15  and  C_17 
REMARK    7  A    between atoms: N_21  and  C_22 
ROOT
HETATM    1  C   UNL     1       5.225  12.771  21.636  0.00  0.00    -0.024 C 
HETATM    2  C   UNL     1       4.348  13.357  22.546  0.00  0.00     0.074 C 
HETATM    3  C   UNL     1       4.766  14.376  23.396  0.00  0.00     0.074 C 
HETATM    4  C   UNL     1       6.068  14.869  23.291  0.00  0.00     0.081 C 
HETATM    5  C   UNL     1       7.008  14.295  22.408  0.00  0.00     0.026 C 
HETATM    6  C   UNL     1       6.580  13.164  21.692  0.00  0.00     0.026 C 
ENDROOT
BRANCH   5   7
HETATM    7  C   UNL     1       8.368  14.882  22.225  0.00  0.00     0.073 A 
HETATM    8  C   UNL     1       8.649  16.197  21.863  0.00  0.00     0.053 A 
HETATM    9  C   UNL     1      10.030  16.299  21.755  0.00  0.00     0.141 A 
HETATM   10  N   UNL     1      10.637  15.164  22.057  0.00  0.00    -0.179 NA
HETATM   11  N   UNL     1       9.648  14.287  22.390  0.00  0.00    -0.232 N 
BRANCH  11  12
HETATM   12  C   UNL     1      10.041  12.964  22.783  0.00  0.00     0.080 A 
HETATM   13  C   UNL     1       9.778  12.453  24.072  0.00  0.00     0.062 A 
HETATM   14 CL   UNL     1       9.011  13.313  25.369  0.00  0.00    -0.082 Cl
HETATM   15  C   UNL     1      10.062  11.108  24.363  0.00  0.00     0.026 A 
HETATM   16  C   UNL     1      10.593  10.261  23.394  0.00  0.00     0.002 A 
HETATM   17  C   UNL     1      10.921  10.776  22.146  0.00  0.00     0.002 A 
HETATM   18  C   UNL     1      10.691  12.125  21.863  0.00  0.00     0.033 A 
ENDBRANCH  11  12
ENDBRANCH   5   7
BRANCH   4  19
HETATM   19  O   UNL     1       6.404  15.949  24.068  0.00  0.00    -0.360 OA
HETATM   20  H   UNL     1       6.247  15.736  25.003  0.00  0.00     0.217 HD
ENDBRANCH   4  19
BRANCH   1  21
HETATM   21  C   UNL     1       4.800  11.771  20.569  0.00  0.00     0.047 C 
BRANCH  21  22
HETATM   22  C   UNL     1       5.967  11.166  19.761  0.00  0.00     0.061 C 
BRANCH  22  23
HETATM   23  C   UNL     1       5.571  10.339  18.555  0.00  0.00     0.005 A 
HETATM   24  N   UNL     1       6.161   9.102  18.394  0.00  0.00    -0.370 N 
HETATM   25  C   UNL     1       5.776   8.215  17.423  0.00  0.00     0.084 A 
HETATM   26  H   UNL     1       6.793   8.768  19.116  0.00  0.00     0.165 HD
HETATM   27  C   UNL     1       4.813   8.505  16.537  0.00  0.00    -0.006 A 
HETATM   28  C   UNL     1       4.102   9.839  16.593  0.00  0.00     0.057 A 
HETATM   29  C   UNL     1       4.593  10.731  17.711  0.00  0.00     0.002 A 
ENDBRANCH  22  23
ENDBRANCH  21  22
ENDBRANCH   1  21
BRANCH   2  30
HETATM   30  O   UNL     1       3.053  12.957  22.658  0.00  0.00    -0.360 OA
HETATM   31  H   UNL     1       3.075  12.089  23.097  0.00  0.00     0.217 HD
ENDBRANCH   2  30
TORSDOF 7
ENDMDL
MODEL 4
REMARK VINA RESULT:    -8.092      2.674      5.738
REMARK INTER + INTRA:         -12.526
REMARK INTER:                 -11.033
REMARK INTRA:                  -1.494
REMARK UNBOUND:                -1.596
REMARK  7 active torsions:
REMARK  status: ('A' for Active; 'I' for Inactive)
REMARK    1  A    between atoms: C_6  and  C_7 
REMARK    2  A    between atoms: C_7  and  C_8 
REMARK    3  A    between atoms: C_8  and  C_9 
REMARK    4  A    between atoms: C_10  and  O_11 
REMARK    5  A    between atoms: C_13  and  O_14 
REMARK    6  A    between atoms: C_15  and  C_17 
REMARK    7  A    between atoms: N_21  and  C_22 
ROOT
HETATM    1  C   UNL     1       4.751  13.667  22.832  0.00  0.00    -0.024 C 
HETATM    2  C   UNL     1       4.554  12.569  21.996  0.00  0.00     0.074 C 
HETATM    3  C   UNL     1       5.558  12.127  21.138  0.00  0.00     0.074 C 
HETATM    4  C   UNL     1       6.807  12.750  21.162  0.00  0.00     0.081 C 
HETATM    5  C   UNL     1       7.055  13.884  21.966  0.00  0.00     0.026 C 
HETATM    6  C   UNL     1       5.958  14.386  22.689  0.00  0.00     0.026 C 
ENDROOT
BRANCH   5   7
HETATM    7  C   UNL     1       8.415  14.490  22.065  0.00  0.00     0.073 A 
HETATM    8  C   UNL     1       8.731  15.828  21.843  0.00  0.00     0.053 A 
HETATM    9  C   UNL     1      10.107  15.947  21.988  0.00  0.00     0.141 A 
HETATM   10  N   UNL     1      10.671  14.799  22.320  0.00  0.00    -0.179 NA
HETATM   11  N   UNL     1       9.655  13.895  22.417  0.00  0.00    -0.232 N 
BRANCH  11  12
HETATM   12  C   UNL     1       9.997  12.551  22.788  0.00  0.00     0.080 A 
HETATM   13  C   UNL     1       9.487  11.941  23.954  0.00  0.00     0.062 A 
HETATM   14 CL   UNL     1       8.443  12.690  25.119  0.00  0.00    -0.082 Cl
HETATM   15  C   UNL     1       9.744  10.582  24.202  0.00  0.00     0.026 A 
HETATM   16  C   UNL     1      10.490   9.819  23.308  0.00  0.00     0.002 A 
HETATM   17  C   UNL     1      11.054  10.430  22.196  0.00  0.00     0.002 A 
HETATM   18  C   UNL     1      10.848  11.793  21.967  0.00  0.00     0.033 A 
ENDBRANCH  11  12
ENDBRANCH   5   7
BRANCH   4  19
HETATM   19  O   UNL     1       7.801  12.212  20.383  0.00  0.00    -0.360 OA
HETATM   20  H   UNL     1       8.502  12.871  20.252  0.00  0.00     0.217 HD
ENDBRANCH   4  19
BRANCH   1  21
HETATM   21  C   UNL     1       3.766  14.104  23.907  0.00  0.00     0.047 C 
BRANCH  21  22
HETATM   22  C   UNL     1       2.632  15.019  23.399  0.00  0.00     0.061 C 
BRANCH  22  23
HETATM   23  C   UNL     1       1.349  14.318  23.006  0.00  0.00     0.005 A 
HETATM   24  N   UNL     1       1.127  14.071  21.667  0.00  0.00    -0.370 N 
HETATM   25  C   UNL     1       0.073  13.322  21.213  0.00  0.00     0.084 A 
HETATM   26  H   UNL     1       1.855  14.315  21.002  0.00  0.00     0.165 HD
HETATM   27  C   UNL     1      -0.839  12.801  22.046  0.00  0.00    -0.006 A 
HETATM   28  C   UNL     1      -0.722  13.017  23.538  0.00  0.00     0.057 A 
HETATM   29  C   UNL     1       0.485  13.841  23.929  0.00  0.00     0.002 A 
ENDBRANCH  22  23
ENDBRANCH  21  22
ENDBRANCH   1  21
BRANCH   2  30
HETATM   30  O   UNL     1       3.378  11.888  21.968  0.00  0.00    -0.360 OA
HETATM   31  H   UNL     1       3.562  11.015  22.357  0.00  0.00     0.217 HD
ENDBRANCH   2  30
TORSDOF 7
ENDMDL
MODEL 5
REMARK VINA RESULT:    -7.910      3.016      7.101
REMARK INTER + INTRA:         -12.280
REMARK INTER:                 -10.203
REMARK INTRA:                  -2.078
REMARK UNBOUND:                -1.596
REMARK  7 active torsions:
REMARK  status: ('A' for Active; 'I' for Inactive)
REMARK    1  A    between atoms: C_6  and  C_7 
REMARK    2  A    between atoms: C_7  and  C_8 
REMARK    3  A    between atoms: C_8  and  C_9 
REMARK    4  A    between atoms: C_10  and  O_11 
REMARK    5  A    between atoms: C_13  and  O_14 
REMARK    6  A    between atoms: C_15  and  C_17 
REMARK    7  A    between atoms: N_21  and  C_22 
ROOT
HETATM    1  C   UNL     1      10.303  10.459  23.361  0.00  0.00    -0.024 C 
HETATM    2  C   UNL     1      10.951  10.791  22.173  0.00  0.00     0.074 C 
HETATM    3  C   UNL     1      11.230  12.116  21.850  0.00  0.00     0.074 C 
HETATM    4  C   UNL     1      10.916  13.127  22.759  0.00  0.00     0.081 C 
HETATM    5  C   UNL     1      10.232  12.854  23.964  0.00  0.00     0.026 C 
HETATM    6  C   UNL     1       9.831  11.521  24.164  0.00  0.00     0.026 C 
ENDROOT
BRANCH   5   7
HETATM    7  C   UNL     1       9.982  13.918  24.980  0.00  0.00     0.073 A 
HETATM    8  C   UNL     1      10.905  14.395  25.908  0.00  0.00     0.053 A 
HETATM    9  C   UNL     1      10.244  15.336  26.687  0.00  0.00     0.141 A 
HETATM   10  N   UNL     1       8.994  15.513  26.296  0.00  0.00    -0.179 NA
HETATM   11  N   UNL     1       8.815  14.689  25.225  0.00  0.00    -0.232 N 
BRANCH  11  12
HETATM   12  C   UNL     1       7.528  14.700  24.588  0.00  0.00     0.080 A 
HETATM   13  C   UNL     1       6.510  13.787  24.937  0.00  0.00     0.062 A 
HETATM   14 CL   UNL     1       6.642  12.515  26.109  0.00  0.00    -0.082 Cl
HETATM   15  C   UNL     1       5.227  13.925  24.381  0.00  0.00     0.026 A 
HETATM   16  C   UNL     1       4.937  14.958  23.494  0.00  0.00     0.002 A 
HETATM   17  C   UNL     1       5.953  15.816  23.093  0.00  0.00     0.002 A 
HETATM   18  C   UNL     1       7.245  15.656  23.599  0.00  0.00     0.033 A 
ENDBRANCH  11  12
ENDBRANCH   5   7
BRANCH   4  19
HETATM   19  O   UNL     1      11.309  14.405  22.450  0.00  0.00    -0.360 OA
HETATM   20  H   UNL     1      11.724  14.412  21.571  0.00  0.00     0.217 HD
ENDBRANCH   4  19
BRANCH   1  21
HETATM   21  C   UNL     1      10.113   9.033  23.856  0.00  0.00     0.047 C 
BRANCH  21  22
HETATM   22  C   UNL     1       8.932   8.283  23.204  0.00  0.00     0.061 C 
BRANCH  22  23
HETATM   23  C   UNL     1       7.712   9.125  22.891  0.00  0.00     0.005 A 
HETATM   24  N   UNL     1       7.487   9.479  21.577  0.00  0.00    -0.370 N 
HETATM   25  C   UNL     1       6.346  10.116  21.163  0.00  0.00     0.084 A 
HETATM   26  H   UNL     1       8.112   9.116  20.863  0.00  0.00     0.165 HD
HETATM   27  C   UNL     1       5.378  10.468  22.020  0.00  0.00    -0.006 A 
HETATM   28  C   UNL     1       5.514  10.157  23.494  0.00  0.00     0.057 A 
HETATM   29  C   UNL     1       6.800   9.439  23.837  0.00  0.00     0.002 A 
ENDBRANCH  22  23
ENDBRANCH  21  22
ENDBRANCH   1  21
BRANCH   2  30
HETATM   30  O   UNL     1      11.331   9.845  21.272  0.00  0.00    -0.360 OA
HETATM   31  H   UNL     1      11.615  10.329  20.477  0.00  0.00     0.217 HD
ENDBRANCH   2  30
TORSDOF 7
ENDMDL
MODEL 6
REMARK VINA RESULT:    -7.857      2.209      5.391
REMARK INTER + INTRA:         -12.210
REMARK INTER:                 -10.329
REMARK INTRA:                  -1.881
REMARK UNBOUND:                -1.596
REMARK  7 active torsions:
REMARK  status: ('A' for Active; 'I' for Inactive)
REMARK    1  A    between atoms: C_6  and  C_7 
REMARK    2  A    between atoms: C_7  and  C_8 
REMARK    3  A    between atoms: C_8  and  C_9 
REMARK    4  A    between atoms: C_10  and  O_11 
REMARK    5  A    between atoms: C_13  and  O_14 
REMARK    6  A    between atoms: C_15  and  C_17 
REMARK    7  A    between atoms: N_21  and  C_22 
ROOT
HETATM    1  C   UNL     1       5.539  12.230  20.987  0.00  0.00    -0.024 C 
HETATM    2  C   UNL     1       4.507  12.732  21.777  0.00  0.00     0.074 C 
HETATM    3  C   UNL     1       4.731  13.756  22.692  0.00  0.00     0.074 C 
HETATM    4  C   UNL     1       5.997  14.339  22.775  0.00  0.00     0.081 C 
HETATM    5  C   UNL     1       7.088  13.853  22.022  0.00  0.00     0.026 C 
HETATM    6  C   UNL     1       6.843  12.713  21.236  0.00  0.00     0.026 C 
ENDROOT
BRANCH   5   7
HETATM    7  C   UNL     1       8.415  14.536  22.037  0.00  0.00     0.073 A 
HETATM    8  C   UNL     1       8.637  15.895  21.831  0.00  0.00     0.053 A 
HETATM    9  C   UNL     1      10.011  16.090  21.878  0.00  0.00     0.141 A 
HETATM   10  N   UNL     1      10.663  14.969  22.136  0.00  0.00    -0.179 NA
HETATM   11  N   UNL     1       9.710  14.006  22.281  0.00  0.00    -0.232 N 
BRANCH  11  12
HETATM   12  C   UNL     1      10.154  12.676  22.588  0.00  0.00     0.080 A 
HETATM   13  C   UNL     1       9.839  12.042  23.809  0.00  0.00     0.062 A 
HETATM   14 CL   UNL     1       8.941  12.743  25.117  0.00  0.00    -0.082 Cl
HETATM   15  C   UNL     1      10.182  10.694  24.006  0.00  0.00     0.026 A 
HETATM   16  C   UNL     1      10.824   9.964  23.009  0.00  0.00     0.002 A 
HETATM   17  C   UNL     1      11.200  10.602  21.834  0.00  0.00     0.002 A 
HETATM   18  C   UNL     1      10.910  11.956  21.648  0.00  0.00     0.033 A 
ENDBRANCH  11  12
ENDBRANCH   5   7
BRANCH   4  19
HETATM   19  O   UNL     1       6.146  15.420  23.609  0.00  0.00    -0.360 OA
HETATM   20  H   UNL     1       6.377  15.111  24.501  0.00  0.00     0.217 HD
ENDBRANCH   4  19
BRANCH   1  21
HETATM   21  C   UNL     1       5.337  11.232  19.857  0.00  0.00     0.047 C 
BRANCH  21  22
HETATM   22  C   UNL     1       5.843   9.807  20.165  0.00  0.00     0.061 C 
BRANCH  22  23
HETATM   23  C   UNL     1       5.775   9.387  21.619  0.00  0.00     0.005 A 
HETATM   24  N   UNL     1       4.533   9.146  22.169  0.00  0.00    -0.370 N 
HETATM   25  C   UNL     1       4.363   8.628  23.426  0.00  0.00     0.084 A 
HETATM   26  H   UNL     1       3.717   9.202  21.566  0.00  0.00     0.165 HD
HETATM   27  C   UNL     1       5.403   8.348  24.225  0.00  0.00    -0.006 A 
HETATM   28  C   UNL     1       6.818   8.588  23.749  0.00  0.00     0.057 A 
HETATM   29  C   UNL     1       6.889   9.144  22.344  0.00  0.00     0.002 A 
ENDBRANCH  22  23
ENDBRANCH  21  22
ENDBRANCH   1  21
BRANCH   2  30
HETATM   30  O   UNL     1       3.240  12.241  21.702  0.00  0.00    -0.360 OA
HETATM   31  H   UNL     1       2.905  12.219  22.616  0.00  0.00     0.217 HD
ENDBRANCH   2  30
TORSDOF 7
ENDMDL
MODEL 7
REMARK VINA RESULT:    -7.855      2.177      4.093
REMARK INTER + INTRA:         -12.206
REMARK INTER:                  -9.649
REMARK INTRA:                  -2.557
REMARK UNBOUND:                -1.596
REMARK  7 active torsions:
REMARK  status: ('A' for Active; 'I' for Inactive)
REMARK    1  A    between atoms: C_6  and  C_7 
REMARK    2  A    between atoms: C_7  and  C_8 
REMARK    3  A    between atoms: C_8  and  C_9 
REMARK    4  A    between atoms: C_10  and  O_11 
REMARK    5  A    between atoms: C_13  and  O_14 
REMARK    6  A    between atoms: C_15  and  C_17 
REMARK    7  A    between atoms: N_21  and  C_22 
ROOT
HETATM    1  C   UNL     1       7.386  15.223  23.225  0.00  0.00    -0.024 C 
HETATM    2  C   UNL     1       7.751  14.723  24.473  0.00  0.00     0.074 C 
HETATM    3  C   UNL     1       6.863  13.968  25.235  0.00  0.00     0.074 C 
HETATM    4  C   UNL     1       5.608  13.648  24.713  0.00  0.00     0.081 C 
HETATM    5  C   UNL     1       5.174  14.152  23.467  0.00  0.00     0.026 C 
HETATM    6  C   UNL     1       6.047  15.041  22.816  0.00  0.00     0.026 C 
ENDROOT
BRANCH   5   7
HETATM    7  C   UNL     1       3.874  13.734  22.865  0.00  0.00     0.073 A 
HETATM    8  C   UNL     1       2.650  14.376  23.035  0.00  0.00     0.053 A 
HETATM    9  C   UNL     1       1.703  13.628  22.349  0.00  0.00     0.141 A 
HETATM   10  N   UNL     1       2.242  12.590  21.733  0.00  0.00    -0.179 NA
HETATM   11  N   UNL     1       3.578  12.651  21.995  0.00  0.00    -0.232 N 
BRANCH  11  12
HETATM   12  C   UNL     1       4.413  11.634  21.420  0.00  0.00     0.080 A 
HETATM   13  C   UNL     1       4.648  10.401  22.065  0.00  0.00     0.062 A 
HETATM   14 CL   UNL     1       4.038   9.936  23.621  0.00  0.00    -0.082 Cl
HETATM   15  C   UNL     1       5.361   9.389  21.401  0.00  0.00     0.026 A 
HETATM   16  C   UNL     1       5.835   9.577  20.106  0.00  0.00     0.002 A 
HETATM   17  C   UNL     1       5.668  10.812  19.493  0.00  0.00     0.002 A 
HETATM   18  C   UNL     1       5.006  11.844  20.164  0.00  0.00     0.033 A 
ENDBRANCH  11  12
ENDBRANCH   5   7
BRANCH   4  19
HETATM   19  O   UNL     1       4.808  12.810  25.448  0.00  0.00    -0.360 OA
HETATM   20  H   UNL     1       4.499  13.273  26.244  0.00  0.00     0.217 HD
ENDBRANCH   4  19
BRANCH   1  21
HETATM   21  C   UNL     1       8.351  15.913  22.270  0.00  0.00     0.047 C 
BRANCH  21  22
HETATM   22  C   UNL     1       8.993  14.976  21.225  0.00  0.00     0.061 C 
BRANCH  22  23
HETATM   23  C   UNL     1       9.300  13.572  21.702  0.00  0.00     0.005 A 
HETATM   24  N   UNL     1      10.409  13.385  22.502  0.00  0.00    -0.370 N 
HETATM   25  C   UNL     1      10.700  12.188  23.102  0.00  0.00     0.084 A 
HETATM   26  H   UNL     1      10.944  14.200  22.787  0.00  0.00     0.165 HD
HETATM   27  C   UNL     1       9.937  11.101  22.927  0.00  0.00    -0.006 A 
HETATM   28  C   UNL     1       8.703  11.167  22.055  0.00  0.00     0.057 A 
HETATM   29  C   UNL     1       8.467  12.537  21.457  0.00  0.00     0.002 A 
ENDBRANCH  22  23
ENDBRANCH  21  22
ENDBRANCH   1  21
BRANCH   2  30
HETATM   30  O   UNL     1       8.978  14.955  25.011  0.00  0.00    -0.360 OA
HETATM   31  H   UNL     1       9.524  14.182  24.782  0.00  0.00     0.217 HD
ENDBRANCH   2  30
TORSDOF 7
ENDMDL
MODEL 8
REMARK VINA RESULT:    -7.819      2.552      6.647
REMARK INTER + INTRA:         -12.158
REMARK INTER:                 -10.562
REMARK INTRA:                  -1.596
REMARK UNBOUND:                -1.596
REMARK  7 active torsions:
REMARK  status: ('A' for Active; 'I' for Inactive)
REMARK    1  A    between atoms: C_6  and  C_7 
REMARK    2  A    between atoms: C_7  and  C_8 
REMARK    3  A    between atoms: C_8  and  C_9 
REMARK    4  A    between atoms: C_10  and  O_11 
REMARK    5  A    between atoms: C_13  and  O_14 
REMARK    6  A    between atoms: C_15  and  C_17 
REMARK    7  A    between atoms: N_21  and  C_22 
ROOT
HETATM    1  C   UNL     1       6.395  11.189  20.503  0.00  0.00    -0.024 C 
HETATM    2  C   UNL     1       6.526  10.128  21.398  0.00  0.00     0.074 C 
HETATM    3  C   UNL     1       6.414  10.326  22.771  0.00  0.00     0.074 C 
HETATM    4  C   UNL     1       6.098  11.595  23.260  0.00  0.00     0.081 C 
HETATM    5  C   UNL     1       5.984  12.712  22.404  0.00  0.00     0.026 C 
HETATM    6  C   UNL     1       6.267  12.486  21.045  0.00  0.00     0.026 C 
ENDROOT
BRANCH   5   7
HETATM    7  C   UNL     1       5.553  14.047  22.913  0.00  0.00     0.073 A 
HETATM    8  C   UNL     1       4.246  14.424  23.214  0.00  0.00     0.053 A 
HETATM    9  C   UNL     1       4.290  15.756  23.602  0.00  0.00     0.141 A 
HETATM   10  N   UNL     1       5.524  16.232  23.605  0.00  0.00    -0.179 NA
HETATM   11  N   UNL     1       6.326  15.196  23.227  0.00  0.00    -0.232 N 
BRANCH  11  12
HETATM   12  C   UNL     1       7.738  15.441  23.165  0.00  0.00     0.080 A 
HETATM   13  C   UNL     1       8.601  15.148  24.243  0.00  0.00     0.062 A 
HETATM   14 CL   UNL     1       8.121  14.513  25.784  0.00  0.00    -0.082 Cl
HETATM   15  C   UNL     1       9.990  15.280  24.084  0.00  0.00     0.026 A 
HETATM   16  C   UNL     1      10.537  15.690  22.870  0.00  0.00     0.002 A 
HETATM   17  C   UNL     1       9.691  16.048  21.829  0.00  0.00     0.002 A 
HETATM   18  C   UNL     1       8.306  15.970  21.994  0.00  0.00     0.033 A 
ENDBRANCH  11  12
ENDBRANCH   5   7
BRANCH   4  19
HETATM   19  O   UNL     1       5.886  11.722  24.610  0.00  0.00    -0.360 OA
HETATM   20  H   UNL     1       5.105  11.204  24.865  0.00  0.00     0.217 HD
ENDBRANCH   4  19
BRANCH   1  21
HETATM   21  C   UNL     1       6.342  11.023  18.991  0.00  0.00     0.047 C 
BRANCH  21  22
HETATM   22  C   UNL     1       4.926  10.789  18.423  0.00  0.00     0.061 C 
BRANCH  22  23
HETATM   23  C   UNL     1       4.705   9.453  17.744  0.00  0.00     0.005 A 
HETATM   24  N   UNL     1       5.523   8.400  18.099  0.00  0.00    -0.370 N 
HETATM   25  C   UNL     1       5.322   7.119  17.654  0.00  0.00     0.084 A 
HETATM   26  H   UNL     1       6.202   8.542  18.841  0.00  0.00     0.165 HD
HETATM   27  C   UNL     1       4.327   6.808  16.812  0.00  0.00    -0.006 A 
HETATM   28  C   UNL     1       3.373   7.877  16.330  0.00  0.00     0.057 A 
HETATM   29  C   UNL     1       3.675   9.247  16.894  0.00  0.00     0.002 A 
ENDBRANCH  22  23
ENDBRANCH  21  22
ENDBRANCH   1  21
BRANCH   2  30
HETATM   30  O   UNL     1       6.779   8.860  20.978  0.00  0.00    -0.360 OA
HETATM   31  H   UNL     1       7.724   8.702  21.151  0.00  0.00     0.217 HD
ENDBRANCH   2  30
TORSDOF 7
ENDMDL
MODEL 9
REMARK VINA RESULT:    -7.784      3.480      6.473
REMARK INTER + INTRA:         -12.111
REMARK INTER:                 -10.608
REMARK INTRA:                  -1.503
REMARK UNBOUND:                -1.596
REMARK  7 active torsions:
REMARK  status: ('A' for Active; 'I' for Inactive)
REMARK    1  A    between atoms: C_6  and  C_7 
REMARK    2  A    between atoms: C_7  and  C_8 
REMARK    3  A    between atoms: C_8  and  C_9 
REMARK    4  A    between atoms: C_10  and  O_11 
REMARK    5  A    between atoms: C_13  and  O_14 
REMARK    6  A    between atoms: C_15  and  C_17 
REMARK    7  A    between atoms: N_21  and  C_22 
ROOT
HETATM    1  C   UNL     1       6.759  10.369  23.879  0.00  0.00    -0.024 C 
HETATM    2  C   UNL     1       7.448   9.210  23.529  0.00  0.00     0.074 C 
HETATM    3  C   UNL     1       8.838   9.156  23.577  0.00  0.00     0.074 C 
HETATM    4  C   UNL     1       9.554  10.258  24.047  0.00  0.00     0.081 C 
HETATM    5  C   UNL     1       8.911  11.468  24.387  0.00  0.00     0.026 C 
HETATM    6  C   UNL     1       7.524  11.520  24.165  0.00  0.00     0.026 C 
ENDROOT
BRANCH   5   7
HETATM    7  C   UNL     1       9.663  12.613  24.981  0.00  0.00     0.073 A 
HETATM    8  C   UNL     1      10.907  12.539  25.604  0.00  0.00     0.053 A 
HETATM    9  C   UNL     1      11.210  13.817  26.053  0.00  0.00     0.141 A 
HETATM   10  N   UNL     1      10.273  14.692  25.727  0.00  0.00    -0.179 NA
HETATM   11  N   UNL     1       9.332  13.993  25.032  0.00  0.00    -0.232 N 
BRANCH  11  12
HETATM   12  C   UNL     1       8.197  14.720  24.539  0.00  0.00     0.080 A 
HETATM   13  C   UNL     1       8.099  15.139  23.195  0.00  0.00     0.062 A 
HETATM   14 CL   UNL     1       9.301  14.902  21.967  0.00  0.00    -0.082 Cl
HETATM   15  C   UNL     1       6.911  15.728  22.731  0.00  0.00     0.026 A 
HETATM   16  C   UNL     1       5.818  15.900  23.576  0.00  0.00     0.002 A 
HETATM   17  C   UNL     1       5.933  15.556  24.916  0.00  0.00     0.002 A 
HETATM   18  C   UNL     1       7.128  15.017  25.401  0.00  0.00     0.033 A 
ENDBRANCH  11  12
ENDBRANCH   5   7
BRANCH   4  19
HETATM   19  O   UNL     1      10.913  10.123  24.184  0.00  0.00    -0.360 OA
HETATM   20  H   UNL     1      11.322  11.002  24.237  0.00  0.00     0.217 HD
ENDBRANCH   4  19
BRANCH   1  21
HETATM   21  C   UNL     1       5.244  10.451  24.008  0.00  0.00     0.047 C 
BRANCH  21  22
HETATM   22  C   UNL     1       4.740  11.622  24.878  0.00  0.00     0.061 C 
BRANCH  22  23
HETATM   23  C   UNL     1       3.730  12.539  24.222  0.00  0.00     0.005 A 
HETATM   24  N   UNL     1       3.163  13.537  24.989  0.00  0.00    -0.370 N 
HETATM   25  C   UNL     1       2.348  14.506  24.466  0.00  0.00     0.084 A 
HETATM   26  H   UNL     1       3.485  13.655  25.945  0.00  0.00     0.165 HD
HETATM   27  C   UNL     1       2.020  14.532  23.166  0.00  0.00    -0.006 A 
HETATM   28  C   UNL     1       2.558  13.481  22.222  0.00  0.00     0.057 A 
HETATM   29  C   UNL     1       3.458  12.473  22.900  0.00  0.00     0.002 A 
ENDBRANCH  22  23
ENDBRANCH  21  22
ENDBRANCH   1  21
BRANCH   2  30
HETATM   30  O   UNL     1       6.804   8.086  23.115  0.00  0.00    -0.360 OA
HETATM   31  H   UNL     1       5.867   8.210  23.350  0.00  0.00     0.217 HD
ENDBRANCH   2  30
TORSDOF 7
ENDMDL
