MODEL 1
REMARK VINA RESULT:    -7.751      0.000      0.000
REMARK INTER + INTRA:         -11.904
REMARK INTER:                 -10.145
REMARK INTRA:                  -1.760
REMARK UNBOUND:                -1.435
REMARK  7 active torsions:
REMARK  status: ('A' for Active; 'I' for Inactive)
REMARK    1  A    between atoms: C_7  and  N_8 
REMARK    2  A    between atoms: C_14  and  C_15 
REMARK    3  A    between atoms: C_16  and  O_17 
REMARK    4  A    between atoms: C_19  and  O_20 
REMARK    5  A    between atoms: C_22  and  C_23 
REMARK       I    between atoms: C_23  and  N_25 
REMARK    6  A    between atoms: N_25  and  C_27 
REMARK    7  A    between atoms: C_27  and  C_28 
ROOT
HETATM    1  C   UNL     1       3.645   6.979  18.360  0.00  0.00     0.046 C 
HETATM    2  C   UNL     1       2.767   8.084  18.343  0.00  0.00     0.082 C 
HETATM    3  C   UNL     1       1.513   8.014  17.740  0.00  0.00     0.075 C 
HETATM    4  C   UNL     1       1.083   6.815  17.172  0.00  0.00     0.084 C 
HETATM    5  C   UNL     1       3.228   5.813  17.692  0.00  0.00     0.038 C 
HETATM    6  C   UNL     1       1.919   5.681  17.165  0.00  0.00     0.066 C 
ENDROOT
BRANCH   1   7
HETATM    7  C   UNL     1       4.958   7.147  19.072  0.00  0.00     0.172 A 
HETATM    8  N   UNL     1       5.503   6.468  20.156  0.00  0.00    -0.241 N 
HETATM    9  C   UNL     1       6.729   7.098  20.370  0.00  0.00     0.349 A 
HETATM   10  O   UNL     1       7.578   6.941  21.236  0.00  0.00    -0.245 OA
HETATM   11  N   UNL     1       6.842   8.064  19.391  0.00  0.00    -0.226 N 
HETATM   12  H   UNL     1       7.609   8.719  19.309  0.00  0.00     0.194 HD
HETATM   13  N   UNL     1       5.746   8.095  18.613  0.00  0.00    -0.151 NA
BRANCH   8  14
HETATM   14  C   UNL     1       5.043   5.409  21.008  0.00  0.00     0.084 C 
HETATM   15  C   UNL     1       4.984   4.072  20.637  0.00  0.00     0.143 C 
HETATM   16  F   UNL     1       5.103   3.710  19.355  0.00  0.00    -0.204 F 
HETATM   17  C   UNL     1       4.716   3.050  21.553  0.00  0.00     0.044 C 
HETATM   18  C   UNL     1       4.350   3.358  22.857  0.00  0.00     0.003 C 
HETATM   19  C   UNL     1       4.250   4.689  23.227  0.00  0.00     0.002 C 
HETATM   20  C   UNL     1       4.615   5.697  22.324  0.00  0.00     0.033 C 
ENDBRANCH   8  14
ENDBRANCH   1   7
BRANCH   2  21
HETATM   21  O   UNL     1       3.056   9.304  18.905  0.00  0.00    -0.360 OA
HETATM   22  H   UNL     1       2.224   9.824  18.945  0.00  0.00     0.217 HD
ENDBRANCH   2  21
BRANCH   6  23
HETATM   23  C   UNL     1       1.292   4.320  16.920  0.00  0.00     0.256 C 
HETATM   24  O   UNL     1       1.016   4.052  15.747  0.00  0.00    -0.267 OA
HETATM   25  N   UNL     1       0.911   3.442  17.954  0.00  0.00    -0.352 N 
HETATM   26  C   UNL     1       1.176   3.685  19.362  0.00  0.00     0.152 C 
BRANCH  25  27
HETATM   27  C   UNL     1      -0.176   2.481  17.688  0.00  0.00     0.125 C 
BRANCH  27  28
HETATM   28  C   UNL     1      -1.553   2.674  18.345  0.00  0.00     0.015 C 
HETATM   29  C   UNL     1      -1.934   1.612  19.362  0.00  0.00     0.006 C 
ENDBRANCH  27  28
ENDBRANCH  25  27
ENDBRANCH   6  23
BRANCH   4  30
HETATM   30  O   UNL     1      -0.158   6.794  16.613  0.00  0.00    -0.360 OA
HETATM   31  H   UNL     1      -0.740   7.427  17.071  0.00  0.00     0.217 HD
ENDBRANCH   4  30
TORSDOF 7
ENDMDL
MODEL 2
REMARK VINA RESULT:    -7.658      4.108      6.772
REMARK INTER + INTRA:         -11.779
REMARK INTER:                 -10.218
REMARK INTRA:                  -1.561
REMARK UNBOUND:                -1.435
REMARK  7 active torsions:
REMARK  status: ('A' for Active; 'I' for Inactive)
REMARK    1  A    between atoms: C_7  and  N_8 
REMARK    2  A    between atoms: C_14  and  C_15 
REMARK    3  A    between atoms: C_16  and  O_17 
REMARK    4  A    between atoms: C_19  and  O_20 
REMARK    5  A    between atoms: C_22  and  C_23 
REMARK       I    between atoms: C_23  and  N_25 
REMARK    6  A    between atoms: N_25  and  C_27 
REMARK    7  A    between atoms: C_27  and  C_28 
ROOT
HETATM    1  C   UNL     1       4.609   7.239  22.425  0.00  0.00     0.046 C 
HETATM    2  C   UNL     1       5.438   6.580  23.359  0.00  0.00     0.082 C 
HETATM    3  C   UNL     1       5.169   6.610  24.726  0.00  0.00     0.075 C 
HETATM    4  C   UNL     1       4.031   7.268  25.194  0.00  0.00     0.084 C 
HETATM    5  C   UNL     1       3.526   7.979  22.933  0.00  0.00     0.038 C 
HETATM    6  C   UNL     1       3.169   7.938  24.304  0.00  0.00     0.066 C 
ENDROOT
BRANCH   1   7
HETATM    7  C   UNL     1       4.965   7.110  20.971  0.00  0.00     0.172 A 
HETATM    8  N   UNL     1       4.216   6.679  19.881  0.00  0.00    -0.241 N 
HETATM    9  C   UNL     1       5.102   6.759  18.807  0.00  0.00     0.349 A 
HETATM   10  O   UNL     1       4.980   6.437  17.634  0.00  0.00    -0.245 OA
HETATM   11  N   UNL     1       6.281   7.260  19.317  0.00  0.00    -0.226 N 
HETATM   12  H   UNL     1       7.133   7.393  18.785  0.00  0.00     0.194 HD
HETATM   13  N   UNL     1       6.190   7.456  20.644  0.00  0.00    -0.151 NA
BRANCH   8  14
HETATM   14  C   UNL     1       2.881   6.179  19.720  0.00  0.00     0.084 C 
HETATM   15  C   UNL     1       1.922   6.749  18.892  0.00  0.00     0.143 C 
HETATM   16  F   UNL     1       2.096   7.975  18.385  0.00  0.00    -0.204 F 
HETATM   17  C   UNL     1       0.703   6.125  18.613  0.00  0.00     0.044 C 
HETATM   18  C   UNL     1       0.344   4.962  19.281  0.00  0.00     0.003 C 
HETATM   19  C   UNL     1       1.210   4.440  20.229  0.00  0.00     0.002 C 
HETATM   20  C   UNL     1       2.469   5.025  20.426  0.00  0.00     0.033 C 
ENDBRANCH   8  14
ENDBRANCH   1   7
BRANCH   2  21
HETATM   21  O   UNL     1       6.560   5.863  23.020  0.00  0.00    -0.360 OA
HETATM   22  H   UNL     1       7.248   6.037  23.699  0.00  0.00     0.217 HD
ENDBRANCH   2  21
BRANCH   6  23
HETATM   23  C   UNL     1       1.767   8.281  24.775  0.00  0.00     0.256 C 
HETATM   24  O   UNL     1       1.002   7.329  24.946  0.00  0.00    -0.267 OA
HETATM   25  N   UNL     1       1.290   9.602  24.893  0.00  0.00    -0.352 N 
HETATM   26  C   UNL     1       2.112  10.782  24.689  0.00  0.00     0.152 C 
BRANCH  25  27
HETATM   27  C   UNL     1      -0.162   9.832  24.766  0.00  0.00     0.125 C 
BRANCH  27  28
HETATM   28  C   UNL     1      -0.689  11.212  24.342  0.00  0.00     0.015 C 
HETATM   29  C   UNL     1      -2.143  11.238  23.901  0.00  0.00     0.006 C 
ENDBRANCH  27  28
ENDBRANCH  25  27
ENDBRANCH   6  23
BRANCH   4  30
HETATM   30  O   UNL     1       3.804   7.251  26.536  0.00  0.00    -0.360 OA
HETATM   31  H   UNL     1       3.615   6.341  26.830  0.00  0.00     0.217 HD
ENDBRANCH   4  30
TORSDOF 7
ENDMDL
MODEL 3
REMARK VINA RESULT:    -7.615      4.048      6.651
REMARK INTER + INTRA:         -11.721
REMARK INTER:                 -10.171
REMARK INTRA:                  -1.550
REMARK UNBOUND:                -1.435
REMARK  7 active torsions:
REMARK  status: ('A' for Active; 'I' for Inactive)
REMARK    1  A    between atoms: C_7  and  N_8 
REMARK    2  A    between atoms: C_14  and  C_15 
REMARK    3  A    between atoms: C_16  and  O_17 
REMARK    4  A    between atoms: C_19  and  O_20 
REMARK    5  A    between atoms: C_22  and  C_23 
REMARK       I    between atoms: C_23  and  N_25 
REMARK    6  A    between atoms: N_25  and  C_27 
REMARK    7  A    between atoms: C_27  and  C_28 
ROOT
HETATM    1  C   UNL     1       4.518   7.213  22.435  0.00  0.00     0.046 C 
HETATM    2  C   UNL     1       5.346   6.561  23.373  0.00  0.00     0.082 C 
HETATM    3  C   UNL     1       5.040   6.541  24.733  0.00  0.00     0.075 C 
HETATM    4  C   UNL     1       3.866   7.141  25.187  0.00  0.00     0.084 C 
HETATM    5  C   UNL     1       3.393   7.896  22.933  0.00  0.00     0.038 C 
HETATM    6  C   UNL     1       3.002   7.803  24.292  0.00  0.00     0.066 C 
ENDROOT
BRANCH   1   7
HETATM    7  C   UNL     1       4.917   7.139  20.988  0.00  0.00     0.172 A 
HETATM    8  N   UNL     1       4.220   6.697  19.870  0.00  0.00    -0.241 N 
HETATM    9  C   UNL     1       5.128   6.850  18.821  0.00  0.00     0.349 A 
HETATM   10  O   UNL     1       5.053   6.551  17.638  0.00  0.00    -0.245 OA
HETATM   11  N   UNL     1       6.266   7.399  19.374  0.00  0.00    -0.226 N 
HETATM   12  H   UNL     1       7.122   7.589  18.869  0.00  0.00     0.194 HD
HETATM   13  N   UNL     1       6.131   7.557  20.703  0.00  0.00    -0.151 NA
BRANCH   8  14
HETATM   14  C   UNL     1       2.918   6.131  19.661  0.00  0.00     0.084 C 
HETATM   15  C   UNL     1       2.430   5.014  20.327  0.00  0.00     0.143 C 
HETATM   16  F   UNL     1       3.249   4.221  21.025  0.00  0.00    -0.204 F 
HETATM   17  C   UNL     1       1.094   4.612  20.239  0.00  0.00     0.044 C 
HETATM   18  C   UNL     1       0.230   5.242  19.353  0.00  0.00     0.003 C 
HETATM   19  C   UNL     1       0.718   6.266  18.557  0.00  0.00     0.002 C 
HETATM   20  C   UNL     1       2.033   6.720  18.728  0.00  0.00     0.033 C 
ENDBRANCH   8  14
ENDBRANCH   1   7
BRANCH   2  21
HETATM   21  O   UNL     1       6.504   5.897  23.046  0.00  0.00    -0.360 OA
HETATM   22  H   UNL     1       6.266   4.980  22.788  0.00  0.00     0.217 HD
ENDBRANCH   2  21
BRANCH   6  23
HETATM   23  C   UNL     1       1.576   8.079  24.733  0.00  0.00     0.256 C 
HETATM   24  O   UNL     1       0.840   7.095  24.840  0.00  0.00    -0.267 OA
HETATM   25  N   UNL     1       1.050   9.377  24.892  0.00  0.00    -0.352 N 
HETATM   26  C   UNL     1       1.836  10.591  24.764  0.00  0.00     0.152 C 
BRANCH  25  27
HETATM   27  C   UNL     1      -0.404   9.564  24.730  0.00  0.00     0.125 C 
BRANCH  27  28
HETATM   28  C   UNL     1      -0.965  10.940  24.335  0.00  0.00     0.015 C 
HETATM   29  C   UNL     1      -2.481  11.038  24.327  0.00  0.00     0.006 C 
ENDBRANCH  27  28
ENDBRANCH  25  27
ENDBRANCH   6  23
BRANCH   4  30
HETATM   30  O   UNL     1       3.604   7.078  26.522  0.00  0.00    -0.360 OA
HETATM   31  H   UNL     1       2.652   6.924  26.666  0.00  0.00     0.217 HD
ENDBRANCH   4  30
TORSDOF 7
ENDMDL
MODEL 4
REMARK VINA RESULT:    -7.445      7.515      9.579
REMARK INTER + INTRA:         -11.492
REMARK INTER:                  -9.935
REMARK INTRA:                  -1.557
REMARK UNBOUND:                -1.435
REMARK  7 active torsions:
REMARK  status: ('A' for Active; 'I' for Inactive)
REMARK    1  A    between atoms: C_7  and  N_8 
REMARK    2  A    between atoms: C_14  and  C_15 
REMARK    3  A    between atoms: C_16  and  O_17 
REMARK    4  A    between atoms: C_19  and  O_20 
REMARK    5  A    between atoms: C_22  and  C_23 
REMARK       I    between atoms: C_23  and  N_25 
REMARK    6  A    between atoms: N_25  and  C_27 
REMARK    7  A    between atoms: C_27  and  C_28 
ROOT
HETATM    1  C   UNL     1      -0.193   8.220  27.182  0.00  0.00     0.046 C 
HETATM    2  C   UNL     1      -0.222   8.786  28.475  0.00  0.00     0.082 C 
HETATM    3  C   UNL     1      -0.572  10.119  28.683  0.00  0.00     0.075 C 
HETATM    4  C   UNL     1      -0.947  10.915  27.601  0.00  0.00     0.084 C 
HETATM    5  C   UNL     1      -0.478   9.071  26.099  0.00  0.00     0.038 C 
HETATM    6  C   UNL     1      -0.939  10.398  26.290  0.00  0.00     0.066 C 
ENDROOT
BRANCH   1   7
HETATM    7  C   UNL     1       0.158   6.763  27.071  0.00  0.00     0.172 A 
HETATM    8  N   UNL     1       1.233   6.126  26.461  0.00  0.00    -0.241 N 
HETATM    9  C   UNL     1       0.988   4.769  26.672  0.00  0.00     0.349 A 
HETATM   10  O   UNL     1       1.582   3.772  26.288  0.00  0.00    -0.245 OA
HETATM   11  N   UNL     1      -0.173   4.698  27.412  0.00  0.00    -0.226 N 
HETATM   12  H   UNL     1      -0.633   3.839  27.688  0.00  0.00     0.194 HD
HETATM   13  N   UNL     1      -0.681   5.923  27.637  0.00  0.00    -0.151 NA
BRANCH   8  14
HETATM   14  C   UNL     1       2.365   6.578  25.704  0.00  0.00     0.084 C 
HETATM   15  C   UNL     1       3.678   6.544  26.158  0.00  0.00     0.143 C 
HETATM   16  F   UNL     1       3.952   6.332  27.450  0.00  0.00    -0.204 F 
HETATM   17  C   UNL     1       4.768   6.809  25.323  0.00  0.00     0.044 C 
HETATM   18  C   UNL     1       4.562   7.265  24.027  0.00  0.00     0.003 C 
HETATM   19  C   UNL     1       3.263   7.457  23.584  0.00  0.00     0.002 C 
HETATM   20  C   UNL     1       2.183   7.094  24.401  0.00  0.00     0.033 C 
ENDBRANCH   8  14
ENDBRANCH   1   7
BRANCH   2  21
HETATM   21  O   UNL     1       0.083   8.096  29.623  0.00  0.00    -0.360 OA
HETATM   22  H   UNL     1       0.322   7.178  29.371  0.00  0.00     0.217 HD
ENDBRANCH   2  21
BRANCH   6  23
HETATM   23  C   UNL     1      -1.720  11.133  25.217  0.00  0.00     0.256 C 
HETATM   24  O   UNL     1      -2.937  10.934  25.196  0.00  0.00    -0.267 OA
HETATM   25  N   UNL     1      -1.113  11.903  24.205  0.00  0.00    -0.352 N 
HETATM   26  C   UNL     1       0.313  12.173  24.137  0.00  0.00     0.152 C 
BRANCH  25  27
HETATM   27  C   UNL     1      -1.833  12.068  22.927  0.00  0.00     0.125 C 
BRANCH  27  28
HETATM   28  C   UNL     1      -1.154  12.779  21.746  0.00  0.00     0.015 C 
HETATM   29  C   UNL     1      -2.083  13.167  20.608  0.00  0.00     0.006 C 
ENDBRANCH  27  28
ENDBRANCH  25  27
ENDBRANCH   6  23
BRANCH   4  30
HETATM   30  O   UNL     1      -1.297  12.204  27.861  0.00  0.00    -0.360 OA
HETATM   31  H   UNL     1      -1.640  12.278  28.770  0.00  0.00     0.217 HD
ENDBRANCH   4  30
TORSDOF 7
ENDMDL
MODEL 5
REMARK VINA RESULT:    -7.257      5.483      7.799
REMARK INTER + INTRA:         -11.237
REMARK INTER:                  -9.874
REMARK INTRA:                  -1.363
REMARK UNBOUND:                -1.435
REMARK  7 active torsions:
REMARK  status: ('A' for Active; 'I' for Inactive)
REMARK    1  A    between atoms: C_7  and  N_8 
REMARK    2  A    between atoms: C_14  and  C_15 
REMARK    3  A    between atoms: C_16  and  O_17 
REMARK    4  A    between atoms: C_19  and  O_20 
REMARK    5  A    between atoms: C_22  and  C_23 
REMARK       I    between atoms: C_23  and  N_25 
REMARK    6  A    between atoms: N_25  and  C_27 
REMARK    7  A    between atoms: C_27  and  C_28 
ROOT
HETATM    1  C   UNL     1       3.121   7.419  24.742  0.00  0.00     0.046 C 
HETATM    2  C   UNL     1       4.405   7.009  25.162  0.00  0.00     0.082 C 
HETATM    3  C   UNL     1       5.428   6.756  24.251  0.00  0.00     0.075 C 
HETATM    4  C   UNL     1       5.205   6.948  22.887  0.00  0.00     0.084 C 
HETATM    5  C   UNL     1       2.893   7.507  23.357  0.00  0.00     0.038 C 
HETATM    6  C   UNL     1       3.943   7.359  22.415  0.00  0.00     0.066 C 
ENDROOT
BRANCH   1   7
HETATM    7  C   UNL     1       2.101   7.705  25.808  0.00  0.00     0.172 A 
HETATM    8  N   UNL     1       1.208   8.760  25.957  0.00  0.00    -0.241 N 
HETATM    9  C   UNL     1       0.549   8.480  27.155  0.00  0.00     0.349 A 
HETATM   10  O   UNL     1      -0.284   9.114  27.786  0.00  0.00    -0.245 OA
HETATM   11  N   UNL     1       1.061   7.280  27.604  0.00  0.00    -0.226 N 
HETATM   12  H   UNL     1       0.809   6.834  28.477  0.00  0.00     0.194 HD
HETATM   13  N   UNL     1       2.020   6.824  26.781  0.00  0.00    -0.151 NA
BRANCH   8  14
HETATM   14  C   UNL     1       0.935   9.954  25.211  0.00  0.00     0.084 C 
HETATM   15  C   UNL     1      -0.323  10.325  24.753  0.00  0.00     0.143 C 
HETATM   16  F   UNL     1      -1.335   9.451  24.747  0.00  0.00    -0.204 F 
HETATM   17  C   UNL     1      -0.580  11.584  24.201  0.00  0.00     0.044 C 
HETATM   18  C   UNL     1       0.463  12.467  23.956  0.00  0.00     0.003 C 
HETATM   19  C   UNL     1       1.757  12.074  24.260  0.00  0.00     0.002 C 
HETATM   20  C   UNL     1       1.985  10.848  24.901  0.00  0.00     0.033 C 
ENDBRANCH   8  14
ENDBRANCH   1   7
BRANCH   2  21
HETATM   21  O   UNL     1       4.762   6.827  26.476  0.00  0.00    -0.360 OA
HETATM   22  H   UNL     1       3.971   6.509  26.964  0.00  0.00     0.217 HD
ENDBRANCH   2  21
BRANCH   6  23
HETATM   23  C   UNL     1       3.847   7.941  21.016  0.00  0.00     0.256 C 
HETATM   24  O   UNL     1       4.026   9.157  20.919  0.00  0.00    -0.267 OA
HETATM   25  N   UNL     1       3.450   7.192  19.890  0.00  0.00    -0.352 N 
HETATM   26  C   UNL     1       3.198   5.762  19.915  0.00  0.00     0.152 C 
BRANCH  25  27
HETATM   27  C   UNL     1       2.825   7.909  18.762  0.00  0.00     0.125 C 
BRANCH  27  28
HETATM   28  C   UNL     1       1.577   7.329  18.077  0.00  0.00     0.015 C 
HETATM   29  C   UNL     1       1.706   7.117  16.578  0.00  0.00     0.006 C 
ENDBRANCH  27  28
ENDBRANCH  25  27
ENDBRANCH   6  23
BRANCH   4  30
HETATM   30  O   UNL     1       6.242   6.705  22.040  0.00  0.00    -0.360 OA
HETATM   31  H   UNL     1       5.950   6.123  21.315  0.00  0.00     0.217 HD
ENDBRANCH   4  30
TORSDOF 7
ENDMDL
MODEL 6
REMARK VINA RESULT:    -7.187      7.845      9.831
REMARK INTER + INTRA:         -11.142
REMARK INTER:                  -9.418
REMARK INTRA:                  -1.724
REMARK UNBOUND:                -1.435
REMARK  7 active torsions:
REMARK  status: ('A' for Active; 'I' for Inactive)
REMARK    1  A    between atoms: C_7  and  N_8 
REMARK    2  A    between atoms: C_14  and  C_15 
REMARK    3  A    between atoms: C_16  and  O_17 
REMARK    4  A    between atoms: C_19  and  O_20 
REMARK    5  A    between atoms: C_22  and  C_23 
REMARK       I    between atoms: C_23  and  N_25 
REMARK    6  A    between atoms: N_25  and  C_27 
REMARK    7  A    between atoms: C_27  and  C_28 
ROOT
HETATM    1  C   UNL     1       1.484   8.064  26.390  0.00  0.00     0.046 C 
HETATM    2  C   UNL     1       0.764   7.255  25.485  0.00  0.00     0.082 C 
HETATM    3  C   UNL     1      -0.346   7.737  24.795  0.00  0.00     0.075 C 
HETATM    4  C   UNL     1      -0.742   9.064  24.960  0.00  0.00     0.084 C 
HETATM    5  C   UNL     1       1.004   9.367  26.614  0.00  0.00     0.038 C 
HETATM    6  C   UNL     1      -0.056   9.915  25.848  0.00  0.00     0.066 C 
ENDROOT
BRANCH   1   7
HETATM    7  C   UNL     1       2.690   7.459  27.052  0.00  0.00     0.172 A 
HETATM    8  N   UNL     1       2.943   7.151  28.384  0.00  0.00    -0.241 N 
HETATM    9  C   UNL     1       4.242   6.641  28.374  0.00  0.00     0.349 A 
HETATM   10  O   UNL     1       4.975   6.283  29.284  0.00  0.00    -0.245 OA
HETATM   11  N   UNL     1       4.647   6.646  27.056  0.00  0.00    -0.226 N 
HETATM   12  H   UNL     1       5.566   6.372  26.731  0.00  0.00     0.194 HD
HETATM   13  N   UNL     1       3.696   7.163  26.258  0.00  0.00    -0.151 NA
BRANCH   8  14
HETATM   14  C   UNL     1       2.205   7.307  29.605  0.00  0.00     0.084 C 
HETATM   15  C   UNL     1       2.343   8.382  30.474  0.00  0.00     0.143 C 
HETATM   16  F   UNL     1       3.377   9.223  30.365  0.00  0.00    -0.204 F 
HETATM   17  C   UNL     1       1.473   8.595  31.547  0.00  0.00     0.044 C 
HETATM   18  C   UNL     1       0.515   7.643  31.871  0.00  0.00     0.003 C 
HETATM   19  C   UNL     1       0.444   6.482  31.118  0.00  0.00     0.002 C 
HETATM   20  C   UNL     1       1.259   6.329  29.988  0.00  0.00     0.033 C 
ENDBRANCH   8  14
ENDBRANCH   1   7
BRANCH   2  21
HETATM   21  O   UNL     1       1.080   5.948  25.203  0.00  0.00    -0.360 OA
HETATM   22  H   UNL     1       0.345   5.381  25.525  0.00  0.00     0.217 HD
ENDBRANCH   2  21
BRANCH   6  23
HETATM   23  C   UNL     1      -0.243  11.415  25.705  0.00  0.00     0.256 C 
HETATM   24  O   UNL     1      -1.269  11.885  26.201  0.00  0.00    -0.267 OA
HETATM   25  N   UNL     1       0.615  12.235  24.944  0.00  0.00    -0.352 N 
HETATM   26  C   UNL     1       1.832  11.764  24.307  0.00  0.00     0.152 C 
BRANCH  25  27
HETATM   27  C   UNL     1       0.066  13.483  24.379  0.00  0.00     0.125 C 
BRANCH  27  28
HETATM   28  C   UNL     1      -0.362  13.538  22.904  0.00  0.00     0.015 C 
HETATM   29  C   UNL     1      -1.391  12.498  22.494  0.00  0.00     0.006 C 
ENDBRANCH  27  28
ENDBRANCH  25  27
ENDBRANCH   6  23
BRANCH   4  30
HETATM   30  O   UNL     1      -1.821   9.491  24.248  0.00  0.00    -0.360 OA
HETATM   31  H   UNL     1      -2.206  10.281  24.670  0.00  0.00     0.217 HD
ENDBRANCH   4  30
TORSDOF 7
ENDMDL
MODEL 7
REMARK VINA RESULT:    -7.178      6.527      9.142
REMARK INTER + INTRA:         -11.131
REMARK INTER:                 -10.057
REMARK INTRA:                  -1.074
REMARK UNBOUND:                -1.435
REMARK  7 active torsions:
REMARK  status: ('A' for Active; 'I' for Inactive)
REMARK    1  A    between atoms: C_7  and  N_8 
REMARK    2  A    between atoms: C_14  and  C_15 
REMARK    3  A    between atoms: C_16  and  O_17 
REMARK    4  A    between atoms: C_19  and  O_20 
REMARK    5  A    between atoms: C_22  and  C_23 
REMARK       I    between atoms: C_23  and  N_25 
REMARK    6  A    between atoms: N_25  and  C_27 
REMARK    7  A    between atoms: C_27  and  C_28 
ROOT
HETATM    1  C   UNL     1       1.786   8.310  25.890  0.00  0.00     0.046 C 
HETATM    2  C   UNL     1       2.753   7.685  26.706  0.00  0.00     0.082 C 
HETATM    3  C   UNL     1       3.939   7.177  26.178  0.00  0.00     0.075 C 
HETATM    4  C   UNL     1       4.209   7.319  24.817  0.00  0.00     0.084 C 
HETATM    5  C   UNL     1       2.037   8.350  24.506  0.00  0.00     0.038 C 
HETATM    6  C   UNL     1       3.278   7.937  23.959  0.00  0.00     0.066 C 
ENDROOT
BRANCH   1   7
HETATM    7  C   UNL     1       0.561   8.860  26.564  0.00  0.00     0.172 A 
HETATM    8  N   UNL     1      -0.270   9.922  26.224  0.00  0.00    -0.241 N 
HETATM    9  C   UNL     1      -1.215   9.956  27.251  0.00  0.00     0.349 A 
HETATM   10  O   UNL     1      -2.131  10.733  27.479  0.00  0.00    -0.245 OA
HETATM   11  N   UNL     1      -0.908   8.907  28.092  0.00  0.00    -0.226 N 
HETATM   12  H   UNL     1      -1.391   8.697  28.956  0.00  0.00     0.194 HD
HETATM   13  N   UNL     1       0.189   8.254  27.670  0.00  0.00    -0.151 NA
BRANCH   8  14
HETATM   14  C   UNL     1      -0.274  10.891  25.165  0.00  0.00     0.084 C 
HETATM   15  C   UNL     1      -1.321  11.071  24.270  0.00  0.00     0.143 C 
HETATM   16  F   UNL     1      -2.298  10.164  24.166  0.00  0.00    -0.204 F 
HETATM   17  C   UNL     1      -1.370  12.148  23.380  0.00  0.00     0.044 C 
HETATM   18  C   UNL     1      -0.285  13.007  23.260  0.00  0.00     0.003 C 
HETATM   19  C   UNL     1       0.842  12.771  24.030  0.00  0.00     0.002 C 
HETATM   20  C   UNL     1       0.837  11.745  24.985  0.00  0.00     0.033 C 
ENDBRANCH   8  14
ENDBRANCH   1   7
BRANCH   2  21
HETATM   21  O   UNL     1       2.625   7.524  28.064  0.00  0.00    -0.360 OA
HETATM   22  H   UNL     1       2.911   8.358  28.497  0.00  0.00     0.217 HD
ENDBRANCH   2  21
BRANCH   6  23
HETATM   23  C   UNL     1       3.757   8.432  22.607  0.00  0.00     0.256 C 
HETATM   24  O   UNL     1       3.987   9.641  22.520  0.00  0.00    -0.267 OA
HETATM   25  N   UNL     1       3.823   7.616  21.460  0.00  0.00    -0.352 N 
HETATM   26  C   UNL     1       3.550   6.189  21.463  0.00  0.00     0.152 C 
BRANCH  25  27
HETATM   27  C   UNL     1       3.712   8.261  20.138  0.00  0.00     0.125 C 
BRANCH  27  28
HETATM   28  C   UNL     1       4.774   7.995  19.058  0.00  0.00     0.015 C 
HETATM   29  C   UNL     1       6.205   8.288  19.478  0.00  0.00     0.006 C 
ENDBRANCH  27  28
ENDBRANCH  25  27
ENDBRANCH   6  23
BRANCH   4  30
HETATM   30  O   UNL     1       5.389   6.822  24.356  0.00  0.00    -0.360 OA
HETATM   31  H   UNL     1       6.108   7.045  24.975  0.00  0.00     0.217 HD
ENDBRANCH   4  30
TORSDOF 7
ENDMDL
MODEL 8
REMARK VINA RESULT:    -7.151      6.690      8.744
REMARK INTER + INTRA:         -11.094
REMARK INTER:                 -10.564
REMARK INTRA:                  -0.530
REMARK UNBOUND:                -1.435
REMARK  7 active torsions:
REMARK  status: ('A' for Active; 'I' for Inactive)
REMARK    1  A    between atoms: C_7  and  N_8 
REMARK    2  A    between atoms: C_14  and  C_15 
REMARK    3  A    between atoms: C_16  and  O_17 
REMARK    4  A    between atoms: C_19  and  O_20 
REMARK    5  A    between atoms: C_22  and  C_23 
REMARK       I    between atoms: C_23  and  N_25 
REMARK    6  A    between atoms: N_25  and  C_27 
REMARK    7  A    between atoms: C_27  and  C_28 
ROOT
HETATM    1  C   UNL     1       0.654   8.399  25.985  0.00  0.00     0.046 C 
HETATM    2  C   UNL     1       0.480   8.536  27.379  0.00  0.00     0.082 C 
HETATM    3  C   UNL     1      -0.260   9.583  27.925  0.00  0.00     0.075 C 
HETATM    4  C   UNL     1      -0.886  10.503  27.084  0.00  0.00     0.084 C 
HETATM    5  C   UNL     1       0.097   9.397  25.164  0.00  0.00     0.038 C 
HETATM    6  C   UNL     1      -0.747  10.409  25.685  0.00  0.00     0.066 C 
ENDROOT
BRANCH   1   7
HETATM    7  C   UNL     1       1.435   7.212  25.497  0.00  0.00     0.172 A 
HETATM    8  N   UNL     1       2.493   7.120  24.599  0.00  0.00    -0.241 N 
HETATM    9  C   UNL     1       2.769   5.754  24.537  0.00  0.00     0.349 A 
HETATM   10  O   UNL     1       3.557   5.120  23.851  0.00  0.00    -0.245 OA
HETATM   11  N   UNL     1       1.899   5.145  25.417  0.00  0.00    -0.226 N 
HETATM   12  H   UNL     1       1.827   4.146  25.563  0.00  0.00     0.194 HD
HETATM   13  N   UNL     1       1.077   6.045  25.986  0.00  0.00    -0.151 NA
BRANCH   8  14
HETATM   14  C   UNL     1       3.206   8.069  23.792  0.00  0.00     0.084 C 
HETATM   15  C   UNL     1       3.548   7.868  22.461  0.00  0.00     0.143 C 
HETATM   16  F   UNL     1       3.470   6.653  21.908  0.00  0.00    -0.204 F 
HETATM   17  C   UNL     1       4.068   8.888  21.657  0.00  0.00     0.044 C 
HETATM   18  C   UNL     1       4.400  10.116  22.214  0.00  0.00     0.003 C 
HETATM   19  C   UNL     1       4.213  10.308  23.573  0.00  0.00     0.002 C 
HETATM   20  C   UNL     1       3.602   9.309  24.344  0.00  0.00     0.033 C 
ENDBRANCH   8  14
ENDBRANCH   1   7
BRANCH   2  21
HETATM   21  O   UNL     1       1.008   7.672  28.308  0.00  0.00    -0.360 OA
HETATM   22  H   UNL     1       0.643   6.778  28.132  0.00  0.00     0.217 HD
ENDBRANCH   2  21
BRANCH   6  23
HETATM   23  C   UNL     1      -1.740  11.149  24.808  0.00  0.00     0.256 C 
HETATM   24  O   UNL     1      -2.914  10.779  24.884  0.00  0.00    -0.267 OA
HETATM   25  N   UNL     1      -1.364  12.117  23.855  0.00  0.00    -0.352 N 
HETATM   26  C   UNL     1      -0.004  12.598  23.681  0.00  0.00     0.152 C 
BRANCH  25  27
HETATM   27  C   UNL     1      -2.247  12.330  22.692  0.00  0.00     0.125 C 
BRANCH  27  28
HETATM   28  C   UNL     1      -1.651  12.752  21.339  0.00  0.00     0.015 C 
HETATM   29  C   UNL     1      -2.595  13.525  20.434  0.00  0.00     0.006 C 
ENDBRANCH  27  28
ENDBRANCH  25  27
ENDBRANCH   6  23
BRANCH   4  30
HETATM   30  O   UNL     1      -1.612  11.495  27.668  0.00  0.00    -0.360 OA
HETATM   31  H   UNL     1      -2.431  11.128  28.048  0.00  0.00     0.217 HD
ENDBRANCH   4  30
TORSDOF 7
ENDMDL
MODEL 9
REMARK VINA RESULT:    -7.077      5.156      7.505
REMARK INTER + INTRA:         -10.995
REMARK INTER:                  -9.560
REMARK INTRA:                  -1.435
REMARK UNBOUND:                -1.435
REMARK  7 active torsions:
REMARK  status: ('A' for Active; 'I' for Inactive)
REMARK    1  A    between atoms: C_7  and  N_8 
REMARK    2  A    between atoms: C_14  and  C_15 
REMARK    3  A    between atoms: C_16  and  O_17 
REMARK    4  A    between atoms: C_19  and  O_20 
REMARK    5  A    between atoms: C_22  and  C_23 
REMARK       I    between atoms: C_23  and  N_25 
REMARK    6  A    between atoms: N_25  and  C_27 
REMARK    7  A    between atoms: C_27  and  C_28 
ROOT
HETATM    1  C   UNL     1       3.000   8.088  24.438  0.00  0.00     0.046 C 
HETATM    2  C   UNL     1       3.840   7.588  25.457  0.00  0.00     0.082 C 
HETATM    3  C   UNL     1       4.901   6.730  25.176  0.00  0.00     0.075 C 
HETATM    4  C   UNL     1       5.179   6.381  23.855  0.00  0.00     0.084 C 
HETATM    5  C   UNL     1       3.240   7.640  23.127  0.00  0.00     0.038 C 
HETATM    6  C   UNL     1       4.374   6.855  22.800  0.00  0.00     0.066 C 
ENDROOT
BRANCH   1   7
HETATM    7  C   UNL     1       1.910   9.039  24.843  0.00  0.00     0.172 A 
HETATM    8  N   UNL     1       0.822   8.874  25.693  0.00  0.00    -0.241 N 
HETATM    9  C   UNL     1       0.160  10.101  25.641  0.00  0.00     0.349 A 
HETATM   10  O   UNL     1      -0.889  10.475  26.145  0.00  0.00    -0.245 OA
HETATM   11  N   UNL     1       0.909  10.908  24.810  0.00  0.00    -0.226 N 
HETATM   12  H   UNL     1       0.662  11.851  24.540  0.00  0.00     0.194 HD
HETATM   13  N   UNL     1       1.968  10.243  24.316  0.00  0.00    -0.151 NA
BRANCH   8  14
HETATM   14  C   UNL     1       0.310   7.775  26.461  0.00  0.00     0.084 C 
HETATM   15  C   UNL     1      -0.440   6.730  25.935  0.00  0.00     0.143 C 
HETATM   16  F   UNL     1      -0.968   6.815  24.710  0.00  0.00    -0.204 F 
HETATM   17  C   UNL     1      -0.753   5.585  26.674  0.00  0.00     0.044 C 
HETATM   18  C   UNL     1      -0.444   5.518  28.026  0.00  0.00     0.003 C 
HETATM   19  C   UNL     1       0.172   6.605  28.626  0.00  0.00     0.002 C 
HETATM   20  C   UNL     1       0.565   7.705  27.850  0.00  0.00     0.033 C 
ENDBRANCH   8  14
ENDBRANCH   1   7
BRANCH   2  21
HETATM   21  O   UNL     1       3.697   7.893  26.789  0.00  0.00    -0.360 OA
HETATM   22  H   UNL     1       3.454   7.068  27.265  0.00  0.00     0.217 HD
ENDBRANCH   2  21
BRANCH   6  23
HETATM   23  C   UNL     1       4.925   6.798  21.387  0.00  0.00     0.256 C 
HETATM   24  O   UNL     1       5.880   7.541  21.145  0.00  0.00    -0.267 OA
HETATM   25  N   UNL     1       4.328   6.053  20.350  0.00  0.00    -0.352 N 
HETATM   26  C   UNL     1       3.191   5.170  20.538  0.00  0.00     0.152 C 
BRANCH  25  27
HETATM   27  C   UNL     1       4.538   6.502  18.960  0.00  0.00     0.125 C 
BRANCH  27  28
HETATM   28  C   UNL     1       3.425   7.259  18.218  0.00  0.00     0.015 C 
HETATM   29  C   UNL     1       3.086   8.625  18.791  0.00  0.00     0.006 C 
ENDBRANCH  27  28
ENDBRANCH  25  27
ENDBRANCH   6  23
BRANCH   4  30
HETATM   30  O   UNL     1       6.238   5.555  23.633  0.00  0.00    -0.360 OA
HETATM   31  H   UNL     1       6.202   5.206  22.723  0.00  0.00     0.217 HD
ENDBRANCH   4  30
TORSDOF 7
ENDMDL
