MODEL 1
REMARK VINA RESULT:    -7.802      0.000      0.000
REMARK INTER + INTRA:         -12.456
REMARK INTER:                 -10.186
REMARK INTRA:                  -2.270
REMARK UNBOUND:                -2.146
REMARK  6 active torsions:
REMARK  status: ('A' for Active; 'I' for Inactive)
REMARK    1  A    between atoms: O_2  and  C_3 
REMARK       I    between atoms: N_7  and  C_8 
REMARK    2  A    between atoms: C_8  and  C_10 
REMARK    3  A    between atoms: C_17  and  C_21 
REMARK    4  A    between atoms: C_18  and  O_20 
REMARK       I    between atoms: C_21  and  N_23 
REMARK    5  A    between atoms: N_23  and  C_25 
REMARK    6  A    between atoms: C_28  and  N_31 
ROOT
HETATM    1  C   UNL     1       1.086   8.074  25.964  0.00  0.00     0.157 A 
HETATM    2  N   UNL     1       1.156   7.641  27.239  0.00  0.00    -0.168 NA
HETATM    3  N   UNL     1       0.163   8.270  27.873  0.00  0.00    -0.277 N 
HETATM    4  H   UNL     1       0.038   8.091  28.863  0.00  0.00     0.189 HD
HETATM    5  C   UNL     1       0.003   9.013  25.821  0.00  0.00     0.029 A 
HETATM    6  C   UNL     1      -0.568   9.106  27.085  0.00  0.00     0.065 A 
HETATM    7  C   UNL     1      -0.555   9.783  24.780  0.00  0.00     0.036 A 
HETATM    8  C   UNL     1      -1.700  10.571  25.012  0.00  0.00     0.066 A 
HETATM    9  C   UNL     1      -2.176  10.690  26.329  0.00  0.00     0.083 A 
HETATM   10  C   UNL     1      -1.647   9.938  27.381  0.00  0.00     0.069 A 
ENDROOT
BRANCH   8  11
HETATM   11  C   UNL     1      -2.387  11.317  23.904  0.00  0.00     0.260 C 
HETATM   12  O   UNL     1      -3.446  10.825  23.496  0.00  0.00    -0.267 OA
HETATM   13  N   UNL     1      -1.862  12.522  23.394  0.00  0.00    -0.318 N 
HETATM   14  C   UNL     1      -2.636  13.281  22.418  0.00  0.00     0.159 C 
BRANCH  13  15
HETATM   15  C   UNL     1      -0.541  12.985  23.616  0.00  0.00     0.037 A 
HETATM   16  C   UNL     1       0.445  12.791  22.651  0.00  0.00     0.032 A 
HETATM   17  C   UNL     1       1.771  13.122  22.940  0.00  0.00     0.031 A 
HETATM   18  C   UNL     1       2.169  13.624  24.193  0.00  0.00     0.030 A 
HETATM   19  C   UNL     1       1.148  13.885  25.116  0.00  0.00     0.031 A 
HETATM   20  C   UNL     1      -0.197  13.596  24.824  0.00  0.00     0.032 A 
BRANCH  18  21
HETATM   21  N   UNL     1       3.511  13.835  24.452  0.00  0.00    -0.377 N 
HETATM   22  C   UNL     1       4.508  14.206  23.431  0.00  0.00     0.149 C 
HETATM   23  C   UNL     1       5.039  15.629  23.653  0.00  0.00     0.187 C 
HETATM   24  O   UNL     1       5.542  15.781  24.990  0.00  0.00    -0.388 OA
HETATM   25  C   UNL     1       4.481  15.542  25.928  0.00  0.00     0.187 C 
HETATM   26  C   UNL     1       3.932  14.122  25.838  0.00  0.00     0.149 C 
ENDBRANCH  18  21
ENDBRANCH  13  15
ENDBRANCH   8  11
BRANCH   9  27
HETATM   27  O   UNL     1      -3.156  11.582  26.693  0.00  0.00    -0.360 OA
HETATM   28  H   UNL     1      -2.844  12.037  27.507  0.00  0.00     0.217 HD
ENDBRANCH   9  27
BRANCH   1  29
HETATM   29  C   UNL     1       2.039   7.636  24.906  0.00  0.00     0.275 C 
HETATM   30  N   UNL     1       2.962   8.558  24.408  0.00  0.00    -0.344 N 
HETATM   31  C   UNL     1       3.219   9.892  24.927  0.00  0.00     0.158 C 
HETATM   32  C   UNL     1       3.861   8.245  23.317  0.00  0.00     0.129 C 
HETATM   33  C   UNL     1       4.459  10.425  24.199  0.00  0.00     0.140 C 
HETATM   34  C   UNL     1       5.029   9.211  23.462  0.00  0.00     0.053 C 
HETATM   35  O   UNL     1       2.020   6.478  24.481  0.00  0.00    -0.266 OA
BRANCH  33  36
HETATM   36  O   UNL     1       5.354  10.975  25.170  0.00  0.00    -0.389 OA
HETATM   37  C   UNL     1       6.633  11.300  24.657  0.00  0.00     0.202 C 
ENDBRANCH  33  36
ENDBRANCH   1  29
TORSDOF 6
ENDMDL
MODEL 2
REMARK VINA RESULT:    -7.763      4.995      8.254
REMARK INTER + INTRA:         -12.405
REMARK INTER:                 -10.475
REMARK INTRA:                  -1.930
REMARK UNBOUND:                -2.146
REMARK  6 active torsions:
REMARK  status: ('A' for Active; 'I' for Inactive)
REMARK    1  A    between atoms: O_2  and  C_3 
REMARK       I    between atoms: N_7  and  C_8 
REMARK    2  A    between atoms: C_8  and  C_10 
REMARK    3  A    between atoms: C_17  and  C_21 
REMARK    4  A    between atoms: C_18  and  O_20 
REMARK       I    between atoms: C_21  and  N_23 
REMARK    5  A    between atoms: N_23  and  C_25 
REMARK    6  A    between atoms: C_28  and  N_31 
ROOT
HETATM    1  C   UNL     1       5.721   9.316  22.182  0.00  0.00     0.157 A 
HETATM    2  N   UNL     1       5.121   8.588  23.146  0.00  0.00    -0.168 NA
HETATM    3  N   UNL     1       6.006   8.541  24.145  0.00  0.00    -0.277 N 
HETATM    4  H   UNL     1       5.756   8.027  24.982  0.00  0.00     0.189 HD
HETATM    5  C   UNL     1       7.032   9.724  22.618  0.00  0.00     0.029 A 
HETATM    6  C   UNL     1       7.171   9.200  23.898  0.00  0.00     0.065 A 
HETATM    7  C   UNL     1       8.103  10.470  22.084  0.00  0.00     0.036 A 
HETATM    8  C   UNL     1       9.251  10.725  22.861  0.00  0.00     0.066 A 
HETATM    9  C   UNL     1       9.367  10.095  24.112  0.00  0.00     0.083 A 
HETATM   10  C   UNL     1       8.322   9.352  24.670  0.00  0.00     0.069 A 
ENDROOT
BRANCH   8  11
HETATM   11  C   UNL     1      10.363  11.606  22.368  0.00  0.00     0.260 C 
HETATM   12  O   UNL     1      11.426  11.036  22.098  0.00  0.00    -0.267 OA
HETATM   13  N   UNL     1      10.178  12.994  22.195  0.00  0.00    -0.318 N 
HETATM   14  C   UNL     1      11.239  13.784  21.582  0.00  0.00     0.159 C 
BRANCH  13  15
HETATM   15  C   UNL     1       9.100  13.738  22.737  0.00  0.00     0.037 A 
HETATM   16  C   UNL     1       9.042  14.002  24.103  0.00  0.00     0.032 A 
HETATM   17  C   UNL     1       7.907  14.611  24.643  0.00  0.00     0.031 A 
HETATM   18  C   UNL     1       6.787  14.949  23.861  0.00  0.00     0.030 A 
HETATM   19  C   UNL     1       6.903  14.747  22.481  0.00  0.00     0.031 A 
HETATM   20  C   UNL     1       8.057  14.174  21.917  0.00  0.00     0.032 A 
BRANCH  18  21
HETATM   21  N   UNL     1       5.653  15.454  24.472  0.00  0.00    -0.377 N 
HETATM   22  C   UNL     1       4.532  16.086  23.753  0.00  0.00     0.149 C 
HETATM   23  C   UNL     1       3.256  15.236  23.842  0.00  0.00     0.187 C 
HETATM   24  O   UNL     1       2.934  14.944  25.211  0.00  0.00    -0.388 OA
HETATM   25  C   UNL     1       4.011  14.206  25.807  0.00  0.00     0.187 C 
HETATM   26  C   UNL     1       5.315  14.998  25.835  0.00  0.00     0.149 C 
ENDBRANCH  18  21
ENDBRANCH  13  15
ENDBRANCH   8  11
BRANCH   9  27
HETATM   27  O   UNL     1      10.521  10.116  24.858  0.00  0.00    -0.360 OA
HETATM   28  H   UNL     1      10.407  10.808  25.547  0.00  0.00     0.217 HD
ENDBRANCH   9  27
BRANCH   1  29
HETATM   29  C   UNL     1       5.085   9.598  20.866  0.00  0.00     0.275 C 
HETATM   30  N   UNL     1       5.056   8.587  19.902  0.00  0.00    -0.344 N 
HETATM   31  C   UNL     1       5.442   7.197  20.094  0.00  0.00     0.158 C 
HETATM   32  C   UNL     1       4.541   8.802  18.566  0.00  0.00     0.129 C 
HETATM   33  C   UNL     1       5.026   6.439  18.828  0.00  0.00     0.140 C 
HETATM   34  C   UNL     1       4.145   7.423  18.056  0.00  0.00     0.053 C 
HETATM   35  O   UNL     1       4.587  10.701  20.630  0.00  0.00    -0.266 OA
BRANCH  33  36
HETATM   36  O   UNL     1       4.341   5.246  19.219  0.00  0.00    -0.389 OA
HETATM   37  C   UNL     1       2.931   5.327  19.111  0.00  0.00     0.202 C 
ENDBRANCH  33  36
ENDBRANCH   1  29
TORSDOF 6
ENDMDL
MODEL 3
REMARK VINA RESULT:    -7.703      2.275      6.086
REMARK INTER + INTRA:         -12.326
REMARK INTER:                 -10.397
REMARK INTRA:                  -1.929
REMARK UNBOUND:                -2.146
REMARK  6 active torsions:
REMARK  status: ('A' for Active; 'I' for Inactive)
REMARK    1  A    between atoms: O_2  and  C_3 
REMARK       I    between atoms: N_7  and  C_8 
REMARK    2  A    between atoms: C_8  and  C_10 
REMARK    3  A    between atoms: C_17  and  C_21 
REMARK    4  A    between atoms: C_18  and  O_20 
REMARK       I    between atoms: C_21  and  N_23 
REMARK    5  A    between atoms: N_23  and  C_25 
REMARK    6  A    between atoms: C_28  and  N_31 
ROOT
HETATM    1  C   UNL     1      -1.712  11.447  25.844  0.00  0.00     0.157 A 
HETATM    2  N   UNL     1      -2.588  11.211  24.847  0.00  0.00    -0.168 NA
HETATM    3  N   UNL     1      -2.135  11.923  23.812  0.00  0.00    -0.277 N 
HETATM    4  H   UNL     1      -2.659  11.895  22.945  0.00  0.00     0.189 HD
HETATM    5  C   UNL     1      -0.683  12.349  25.392  0.00  0.00     0.029 A 
HETATM    6  C   UNL     1      -0.999  12.628  24.068  0.00  0.00     0.065 A 
HETATM    7  C   UNL     1       0.466  12.952  25.945  0.00  0.00     0.036 A 
HETATM    8  C   UNL     1       1.300  13.760  25.146  0.00  0.00     0.066 A 
HETATM    9  C   UNL     1       0.880  14.074  23.842  0.00  0.00     0.083 A 
HETATM   10  C   UNL     1      -0.252  13.491  23.265  0.00  0.00     0.069 A 
ENDROOT
BRANCH   8  11
HETATM   11  C   UNL     1       2.589  14.328  25.667  0.00  0.00     0.260 C 
HETATM   12  O   UNL     1       2.490  15.346  26.363  0.00  0.00    -0.267 OA
HETATM   13  N   UNL     1       3.826  13.707  25.401  0.00  0.00    -0.318 N 
HETATM   14  C   UNL     1       5.032  14.214  26.044  0.00  0.00     0.159 C 
BRANCH  13  15
HETATM   15  C   UNL     1       4.036  12.721  24.403  0.00  0.00     0.037 A 
HETATM   16  C   UNL     1       3.908  11.368  24.713  0.00  0.00     0.032 A 
HETATM   17  C   UNL     1       4.256  10.406  23.762  0.00  0.00     0.031 A 
HETATM   18  C   UNL     1       4.767  10.744  22.496  0.00  0.00     0.030 A 
HETATM   19  C   UNL     1       4.809  12.108  22.182  0.00  0.00     0.031 A 
HETATM   20  C   UNL     1       4.422  13.088  23.113  0.00  0.00     0.032 A 
BRANCH  18  21
HETATM   21  N   UNL     1       5.190   9.744  21.638  0.00  0.00    -0.377 N 
HETATM   22  C   UNL     1       4.850   8.318  21.789  0.00  0.00     0.149 C 
HETATM   23  C   UNL     1       3.937   7.834  20.655  0.00  0.00     0.187 C 
HETATM   24  O   UNL     1       4.519   8.125  19.374  0.00  0.00    -0.388 OA
HETATM   25  C   UNL     1       4.691   9.544  19.241  0.00  0.00     0.187 C 
HETATM   26  C   UNL     1       5.648  10.115  20.284  0.00  0.00     0.149 C 
ENDBRANCH  18  21
ENDBRANCH  13  15
ENDBRANCH   8  11
BRANCH   9  27
HETATM   27  O   UNL     1       1.512  15.005  23.055  0.00  0.00    -0.360 OA
HETATM   28  H   UNL     1       0.814  15.481  22.552  0.00  0.00     0.217 HD
ENDBRANCH   9  27
BRANCH   1  29
HETATM   29  C   UNL     1      -1.856  10.860  27.205  0.00  0.00     0.275 C 
HETATM   30  N   UNL     1      -1.279   9.615  27.465  0.00  0.00    -0.344 N 
HETATM   31  C   UNL     1      -0.391   8.871  26.584  0.00  0.00     0.158 C 
HETATM   32  C   UNL     1      -1.447   8.930  28.730  0.00  0.00     0.129 C 
HETATM   33  C   UNL     1       0.150   7.686  27.393  0.00  0.00     0.140 C 
HETATM   34  C   UNL     1      -0.265   7.976  28.836  0.00  0.00     0.053 C 
HETATM   35  O   UNL     1      -2.466  11.464  28.090  0.00  0.00    -0.266 OA
BRANCH  33  36
HETATM   36  O   UNL     1       1.568   7.621  27.209  0.00  0.00    -0.389 OA
HETATM   37  C   UNL     1       2.039   8.351  26.090  0.00  0.00     0.202 C 
ENDBRANCH  33  36
ENDBRANCH   1  29
TORSDOF 6
ENDMDL
MODEL 4
REMARK VINA RESULT:    -7.674      2.643      6.893
REMARK INTER + INTRA:         -12.288
REMARK INTER:                 -10.538
REMARK INTRA:                  -1.750
REMARK UNBOUND:                -2.146
REMARK  6 active torsions:
REMARK  status: ('A' for Active; 'I' for Inactive)
REMARK    1  A    between atoms: O_2  and  C_3 
REMARK       I    between atoms: N_7  and  C_8 
REMARK    2  A    between atoms: C_8  and  C_10 
REMARK    3  A    between atoms: C_17  and  C_21 
REMARK    4  A    between atoms: C_18  and  O_20 
REMARK       I    between atoms: C_21  and  N_23 
REMARK    5  A    between atoms: N_23  and  C_25 
REMARK    6  A    between atoms: C_28  and  N_31 
ROOT
HETATM    1  C   UNL     1      -0.407  10.224  24.543  0.00  0.00     0.157 A 
HETATM    2  N   UNL     1      -1.550  10.578  23.922  0.00  0.00    -0.168 NA
HETATM    3  N   UNL     1      -1.324  11.808  23.455  0.00  0.00    -0.277 N 
HETATM    4  H   UNL     1      -2.069  12.275  22.952  0.00  0.00     0.189 HD
HETATM    5  C   UNL     1       0.555  11.293  24.451  0.00  0.00     0.029 A 
HETATM    6  C   UNL     1      -0.084  12.298  23.735  0.00  0.00     0.065 A 
HETATM    7  C   UNL     1       1.877  11.521  24.885  0.00  0.00     0.036 A 
HETATM    8  C   UNL     1       2.544  12.714  24.539  0.00  0.00     0.066 A 
HETATM    9  C   UNL     1       1.816  13.725  23.889  0.00  0.00     0.083 A 
HETATM   10  C   UNL     1       0.505  13.528  23.444  0.00  0.00     0.069 A 
ENDROOT
BRANCH   8  11
HETATM   11  C   UNL     1       3.987  12.945  24.887  0.00  0.00     0.260 C 
HETATM   12  O   UNL     1       4.216  13.902  25.636  0.00  0.00    -0.267 OA
HETATM   13  N   UNL     1       5.003  12.092  24.409  0.00  0.00    -0.318 N 
HETATM   14  C   UNL     1       6.369  12.273  24.887  0.00  0.00     0.159 C 
BRANCH  13  15
HETATM   15  C   UNL     1       4.847  11.166  23.347  0.00  0.00     0.037 A 
HETATM   16  C   UNL     1       4.807   9.797  23.607  0.00  0.00     0.032 A 
HETATM   17  C   UNL     1       4.796   8.892  22.544  0.00  0.00     0.031 A 
HETATM   18  C   UNL     1       4.857   9.303  21.200  0.00  0.00     0.030 A 
HETATM   19  C   UNL     1       4.816  10.683  20.965  0.00  0.00     0.031 A 
HETATM   20  C   UNL     1       4.783  11.608  22.024  0.00  0.00     0.032 A 
BRANCH  18  21
HETATM   21  N   UNL     1       4.949   8.356  20.197  0.00  0.00    -0.377 N 
HETATM   22  C   UNL     1       4.471   6.967  20.317  0.00  0.00     0.149 C 
HETATM   23  C   UNL     1       3.275   6.700  19.392  0.00  0.00     0.187 C 
HETATM   24  O   UNL     1       3.591   7.055  18.036  0.00  0.00    -0.388 OA
HETATM   25  C   UNL     1       3.910   8.453  17.972  0.00  0.00     0.187 C 
HETATM   26  C   UNL     1       5.139   8.809  18.804  0.00  0.00     0.149 C 
ENDBRANCH  18  21
ENDBRANCH  13  15
ENDBRANCH   8  11
BRANCH   9  27
HETATM   27  O   UNL     1       2.309  14.991  23.685  0.00  0.00    -0.360 OA
HETATM   28  H   UNL     1       1.737  15.609  24.192  0.00  0.00     0.217 HD
ENDBRANCH   9  27
BRANCH   1  29
HETATM   29  C   UNL     1      -0.232   8.917  25.235  0.00  0.00     0.275 C 
HETATM   30  N   UNL     1      -0.627   8.804  26.570  0.00  0.00    -0.344 N 
HETATM   31  C   UNL     1      -1.358   9.796  27.343  0.00  0.00     0.158 C 
HETATM   32  C   UNL     1      -0.409   7.600  27.345  0.00  0.00     0.129 C 
HETATM   33  C   UNL     1      -1.749   9.130  28.668  0.00  0.00     0.140 C 
HETATM   34  C   UNL     1      -1.439   7.646  28.465  0.00  0.00     0.053 C 
HETATM   35  O   UNL     1       0.246   7.948  24.640  0.00  0.00    -0.266 OA
BRANCH  33  36
HETATM   36  O   UNL     1      -3.132   9.396  28.918  0.00  0.00    -0.389 OA
HETATM   37  C   UNL     1      -3.656  10.480  28.173  0.00  0.00     0.202 C 
ENDBRANCH  33  36
ENDBRANCH   1  29
TORSDOF 6
ENDMDL
MODEL 5
REMARK VINA RESULT:    -7.664      4.601      7.613
REMARK INTER + INTRA:         -12.274
REMARK INTER:                 -10.769
REMARK INTRA:                  -1.505
REMARK UNBOUND:                -2.146
REMARK  6 active torsions:
REMARK  status: ('A' for Active; 'I' for Inactive)
REMARK    1  A    between atoms: O_2  and  C_3 
REMARK       I    between atoms: N_7  and  C_8 
REMARK    2  A    between atoms: C_8  and  C_10 
REMARK    3  A    between atoms: C_17  and  C_21 
REMARK    4  A    between atoms: C_18  and  O_20 
REMARK       I    between atoms: C_21  and  N_23 
REMARK    5  A    between atoms: N_23  and  C_25 
REMARK    6  A    between atoms: C_28  and  N_31 
ROOT
HETATM    1  C   UNL     1       7.483   7.385  23.096  0.00  0.00     0.157 A 
HETATM    2  N   UNL     1       7.306   7.067  24.394  0.00  0.00    -0.168 NA
HETATM    3  N   UNL     1       7.695   8.150  25.072  0.00  0.00    -0.277 N 
HETATM    4  H   UNL     1       7.650   8.124  26.084  0.00  0.00     0.189 HD
HETATM    5  C   UNL     1       8.007   8.722  22.983  0.00  0.00     0.029 A 
HETATM    6  C   UNL     1       8.125   9.179  24.290  0.00  0.00     0.065 A 
HETATM    7  C   UNL     1       8.388   9.588  21.937  0.00  0.00     0.036 A 
HETATM    8  C   UNL     1       8.813  10.902  22.220  0.00  0.00     0.066 A 
HETATM    9  C   UNL     1       8.994  11.274  23.564  0.00  0.00     0.083 A 
HETATM   10  C   UNL     1       8.623  10.439  24.622  0.00  0.00     0.069 A 
ENDROOT
BRANCH   8  11
HETATM   11  C   UNL     1       9.120  11.888  21.129  0.00  0.00     0.260 C 
HETATM   12  O   UNL     1      10.154  11.677  20.485  0.00  0.00    -0.267 OA
HETATM   13  N   UNL     1       8.254  12.964  20.847  0.00  0.00    -0.318 N 
HETATM   14  C   UNL     1       8.521  13.810  19.690  0.00  0.00     0.159 C 
BRANCH  13  15
HETATM   15  C   UNL     1       7.220  13.416  21.706  0.00  0.00     0.037 A 
HETATM   16  C   UNL     1       6.087  12.633  21.917  0.00  0.00     0.032 A 
HETATM   17  C   UNL     1       5.017  13.150  22.650  0.00  0.00     0.031 A 
HETATM   18  C   UNL     1       5.017  14.458  23.167  0.00  0.00     0.030 A 
HETATM   19  C   UNL     1       6.197  15.194  23.011  0.00  0.00     0.031 A 
HETATM   20  C   UNL     1       7.301  14.671  22.312  0.00  0.00     0.032 A 
BRANCH  18  21
HETATM   21  N   UNL     1       3.885  14.947  23.794  0.00  0.00    -0.377 N 
HETATM   22  C   UNL     1       2.656  14.166  24.022  0.00  0.00     0.149 C 
HETATM   23  C   UNL     1       2.424  13.903  25.516  0.00  0.00     0.187 C 
HETATM   24  O   UNL     1       2.435  15.134  26.257  0.00  0.00    -0.388 OA
HETATM   25  C   UNL     1       3.712  15.771  26.103  0.00  0.00     0.187 C 
HETATM   26  C   UNL     1       4.006  16.143  24.652  0.00  0.00     0.149 C 
ENDBRANCH  18  21
ENDBRANCH  13  15
ENDBRANCH   8  11
BRANCH   9  27
HETATM   27  O   UNL     1       9.588  12.453  23.941  0.00  0.00    -0.360 OA
HETATM   28  H   UNL     1       9.790  12.381  24.901  0.00  0.00     0.217 HD
ENDBRANCH   9  27
BRANCH   1  29
HETATM   29  C   UNL     1       7.192   6.439  21.983  0.00  0.00     0.275 C 
HETATM   30  N   UNL     1       6.052   6.646  21.203  0.00  0.00    -0.344 N 
HETATM   31  C   UNL     1       5.172   7.804  21.248  0.00  0.00     0.158 C 
HETATM   32  C   UNL     1       5.644   5.725  20.163  0.00  0.00     0.129 C 
HETATM   33  C   UNL     1       4.205   7.676  20.065  0.00  0.00     0.140 C 
HETATM   34  C   UNL     1       4.779   6.542  19.213  0.00  0.00     0.053 C 
HETATM   35  O   UNL     1       7.947   5.492  21.748  0.00  0.00    -0.266 OA
BRANCH  33  36
HETATM   36  O   UNL     1       4.154   8.932  19.383  0.00  0.00    -0.389 OA
HETATM   37  C   UNL     1       5.285   9.755  19.604  0.00  0.00     0.202 C 
ENDBRANCH  33  36
ENDBRANCH   1  29
TORSDOF 6
ENDMDL
MODEL 6
REMARK VINA RESULT:    -7.621      2.476      6.936
REMARK INTER + INTRA:         -12.217
REMARK INTER:                 -10.472
REMARK INTRA:                  -1.746
REMARK UNBOUND:                -2.146
REMARK  6 active torsions:
REMARK  status: ('A' for Active; 'I' for Inactive)
REMARK    1  A    between atoms: O_2  and  C_3 
REMARK       I    between atoms: N_7  and  C_8 
REMARK    2  A    between atoms: C_8  and  C_10 
REMARK    3  A    between atoms: C_17  and  C_21 
REMARK    4  A    between atoms: C_18  and  O_20 
REMARK       I    between atoms: C_21  and  N_23 
REMARK    5  A    between atoms: N_23  and  C_25 
REMARK    6  A    between atoms: C_28  and  N_31 
ROOT
HETATM    1  C   UNL     1       7.216  10.729  23.109  0.00  0.00     0.157 A 
HETATM    2  N   UNL     1       7.825  10.702  21.907  0.00  0.00    -0.168 NA
HETATM    3  N   UNL     1       7.725  11.948  21.439  0.00  0.00    -0.277 N 
HETATM    4  H   UNL     1       8.118  12.152  20.527  0.00  0.00     0.189 HD
HETATM    5  C   UNL     1       6.719  12.054  23.380  0.00  0.00     0.029 A 
HETATM    6  C   UNL     1       7.075  12.811  22.269  0.00  0.00     0.065 A 
HETATM    7  C   UNL     1       6.020  12.693  24.424  0.00  0.00     0.036 A 
HETATM    8  C   UNL     1       5.754  14.076  24.362  0.00  0.00     0.066 A 
HETATM    9  C   UNL     1       6.062  14.765  23.176  0.00  0.00     0.083 A 
HETATM   10  C   UNL     1       6.756  14.161  22.124  0.00  0.00     0.069 A 
ENDROOT
BRANCH   8  11
HETATM   11  C   UNL     1       5.111  14.811  25.503  0.00  0.00     0.260 C 
HETATM   12  O   UNL     1       5.885  15.338  26.312  0.00  0.00    -0.267 OA
HETATM   13  N   UNL     1       3.709  14.917  25.612  0.00  0.00    -0.318 N 
HETATM   14  C   UNL     1       3.136  15.758  26.656  0.00  0.00     0.159 C 
BRANCH  13  15
HETATM   15  C   UNL     1       2.781  14.122  24.892  0.00  0.00     0.037 A 
HETATM   16  C   UNL     1       1.975  14.696  23.911  0.00  0.00     0.032 A 
HETATM   17  C   UNL     1       0.969  13.935  23.312  0.00  0.00     0.031 A 
HETATM   18  C   UNL     1       0.707  12.603  23.681  0.00  0.00     0.030 A 
HETATM   19  C   UNL     1       1.582  12.027  24.609  0.00  0.00     0.031 A 
HETATM   20  C   UNL     1       2.627  12.767  25.190  0.00  0.00     0.032 A 
BRANCH  18  21
HETATM   21  N   UNL     1      -0.370  11.936  23.124  0.00  0.00    -0.377 N 
HETATM   22  C   UNL     1      -1.039  10.775  23.737  0.00  0.00     0.149 C 
HETATM   23  C   UNL     1      -2.470  11.116  24.174  0.00  0.00     0.187 C 
HETATM   24  O   UNL     1      -3.220  11.663  23.078  0.00  0.00    -0.388 OA
HETATM   25  C   UNL     1      -2.587  12.869  22.623  0.00  0.00     0.187 C 
HETATM   26  C   UNL     1      -1.177  12.622  22.095  0.00  0.00     0.149 C 
ENDBRANCH  18  21
ENDBRANCH  13  15
ENDBRANCH   8  11
BRANCH   9  27
HETATM   27  O   UNL     1       5.666  16.058  22.937  0.00  0.00    -0.360 OA
HETATM   28  H   UNL     1       5.245  16.389  23.762  0.00  0.00     0.217 HD
ENDBRANCH   9  27
BRANCH   1  29
HETATM   29  C   UNL     1       7.077   9.525  23.974  0.00  0.00     0.275 C 
HETATM   30  N   UNL     1       5.864   8.832  23.975  0.00  0.00    -0.344 N 
HETATM   31  C   UNL     1       4.737   9.060  23.082  0.00  0.00     0.158 C 
HETATM   32  C   UNL     1       5.611   7.709  24.852  0.00  0.00     0.129 C 
HETATM   33  C   UNL     1       3.742   7.918  23.320  0.00  0.00     0.140 C 
HETATM   34  C   UNL     1       4.504   6.908  24.180  0.00  0.00     0.053 C 
HETATM   35  O   UNL     1       8.017   9.141  24.674  0.00  0.00    -0.266 OA
BRANCH  33  36
HETATM   36  O   UNL     1       3.339   7.397  22.050  0.00  0.00    -0.389 OA
HETATM   37  C   UNL     1       4.145   7.825  20.967  0.00  0.00     0.202 C 
ENDBRANCH  33  36
ENDBRANCH   1  29
TORSDOF 6
ENDMDL
MODEL 7
REMARK VINA RESULT:    -7.572      2.095      7.505
REMARK INTER + INTRA:         -12.153
REMARK INTER:                 -10.698
REMARK INTRA:                  -1.455
REMARK UNBOUND:                -2.146
REMARK  6 active torsions:
REMARK  status: ('A' for Active; 'I' for Inactive)
REMARK    1  A    between atoms: O_2  and  C_3 
REMARK       I    between atoms: N_7  and  C_8 
REMARK    2  A    between atoms: C_8  and  C_10 
REMARK    3  A    between atoms: C_17  and  C_21 
REMARK    4  A    between atoms: C_18  and  O_20 
REMARK       I    between atoms: C_21  and  N_23 
REMARK    5  A    between atoms: N_23  and  C_25 
REMARK    6  A    between atoms: C_28  and  N_31 
ROOT
HETATM    1  C   UNL     1       1.448  14.039  24.855  0.00  0.00     0.157 A 
HETATM    2  N   UNL     1       1.058  14.364  26.104  0.00  0.00    -0.168 NA
HETATM    3  N   UNL     1       2.162  14.812  26.706  0.00  0.00    -0.277 N 
HETATM    4  H   UNL     1       2.094  15.109  27.673  0.00  0.00     0.189 HD
HETATM    5  C   UNL     1       2.856  14.300  24.695  0.00  0.00     0.029 A 
HETATM    6  C   UNL     1       3.275  14.802  25.922  0.00  0.00     0.065 A 
HETATM    7  C   UNL     1       3.812  14.171  23.667  0.00  0.00     0.036 A 
HETATM    8  C   UNL     1       5.138  14.605  23.868  0.00  0.00     0.066 A 
HETATM    9  C   UNL     1       5.519  15.022  25.155  0.00  0.00     0.083 A 
HETATM   10  C   UNL     1       4.594  15.162  26.194  0.00  0.00     0.069 A 
ENDROOT
BRANCH   8  11
HETATM   11  C   UNL     1       6.154  14.587  22.762  0.00  0.00     0.260 C 
HETATM   12  O   UNL     1       6.426  15.683  22.259  0.00  0.00    -0.267 OA
HETATM   13  N   UNL     1       6.777  13.388  22.357  0.00  0.00    -0.318 N 
HETATM   14  C   UNL     1       7.857  13.441  21.379  0.00  0.00     0.159 C 
BRANCH  13  15
HETATM   15  C   UNL     1       6.321  12.088  22.691  0.00  0.00     0.037 A 
HETATM   16  C   UNL     1       5.415  11.426  21.865  0.00  0.00     0.032 A 
HETATM   17  C   UNL     1       4.865  10.210  22.276  0.00  0.00     0.031 A 
HETATM   18  C   UNL     1       5.166   9.627  23.520  0.00  0.00     0.030 A 
HETATM   19  C   UNL     1       6.138  10.270  24.295  0.00  0.00     0.031 A 
HETATM   20  C   UNL     1       6.733  11.474  23.875  0.00  0.00     0.032 A 
BRANCH  18  21
HETATM   21  N   UNL     1       4.509   8.474  23.913  0.00  0.00    -0.377 N 
HETATM   22  C   UNL     1       4.765   7.759  25.176  0.00  0.00     0.149 C 
HETATM   23  C   UNL     1       3.558   7.839  26.122  0.00  0.00     0.187 C 
HETATM   24  O   UNL     1       2.366   7.380  25.465  0.00  0.00    -0.388 OA
HETATM   25  C   UNL     1       2.101   8.210  24.324  0.00  0.00     0.187 C 
HETATM   26  C   UNL     1       3.215   8.142  23.283  0.00  0.00     0.149 C 
ENDBRANCH  18  21
ENDBRANCH  13  15
ENDBRANCH   8  11
BRANCH   9  27
HETATM   27  O   UNL     1       6.823  15.274  25.505  0.00  0.00    -0.360 OA
HETATM   28  H   UNL     1       6.816  15.593  26.435  0.00  0.00     0.217 HD
ENDBRANCH   9  27
BRANCH   1  29
HETATM   29  C   UNL     1       0.521  13.468  23.839  0.00  0.00     0.275 C 
HETATM   30  N   UNL     1      -0.390  12.486  24.235  0.00  0.00    -0.344 N 
HETATM   31  C   UNL     1      -0.657  12.054  25.599  0.00  0.00     0.158 C 
HETATM   32  C   UNL     1      -1.262  11.811  23.297  0.00  0.00     0.129 C 
HETATM   33  C   UNL     1      -1.879  11.129  25.542  0.00  0.00     0.140 C 
HETATM   34  C   UNL     1      -2.432  11.299  24.126  0.00  0.00     0.053 C 
HETATM   35  O   UNL     1       0.550  13.859  22.670  0.00  0.00    -0.266 OA
BRANCH  33  36
HETATM   36  O   UNL     1      -2.797  11.526  26.565  0.00  0.00    -0.389 OA
HETATM   37  C   UNL     1      -2.717  10.750  27.746  0.00  0.00     0.202 C 
ENDBRANCH  33  36
ENDBRANCH   1  29
TORSDOF 6
ENDMDL
MODEL 8
REMARK VINA RESULT:    -7.511      1.825      3.079
REMARK INTER + INTRA:         -12.072
REMARK INTER:                 -10.364
REMARK INTRA:                  -1.707
REMARK UNBOUND:                -2.146
REMARK  6 active torsions:
REMARK  status: ('A' for Active; 'I' for Inactive)
REMARK    1  A    between atoms: O_2  and  C_3 
REMARK       I    between atoms: N_7  and  C_8 
REMARK    2  A    between atoms: C_8  and  C_10 
REMARK    3  A    between atoms: C_17  and  C_21 
REMARK    4  A    between atoms: C_18  and  O_20 
REMARK       I    between atoms: C_21  and  N_23 
REMARK    5  A    between atoms: N_23  and  C_25 
REMARK    6  A    between atoms: C_28  and  N_31 
ROOT
HETATM    1  C   UNL     1       2.398   8.333  25.026  0.00  0.00     0.157 A 
HETATM    2  N   UNL     1       2.651   7.523  26.073  0.00  0.00    -0.168 NA
HETATM    3  N   UNL     1       1.610   7.683  26.894  0.00  0.00    -0.277 N 
HETATM    4  H   UNL     1       1.601   7.162  27.763  0.00  0.00     0.189 HD
HETATM    5  C   UNL     1       1.146   9.019  25.224  0.00  0.00     0.029 A 
HETATM    6  C   UNL     1       0.671   8.563  26.449  0.00  0.00     0.065 A 
HETATM    7  C   UNL     1       0.370   9.960  24.517  0.00  0.00     0.036 A 
HETATM    8  C   UNL     1      -0.883  10.369  25.017  0.00  0.00     0.066 A 
HETATM    9  C   UNL     1      -1.266   9.939  26.299  0.00  0.00     0.083 A 
HETATM   10  C   UNL     1      -0.520   9.005  27.024  0.00  0.00     0.069 A 
ENDROOT
BRANCH   8  11
HETATM   11  C   UNL     1      -1.787  11.282  24.239  0.00  0.00     0.260 C 
HETATM   12  O   UNL     1      -2.828  10.774  23.807  0.00  0.00    -0.267 OA
HETATM   13  N   UNL     1      -1.470  12.643  24.052  0.00  0.00    -0.318 N 
HETATM   14  C   UNL     1      -2.444  13.521  23.413  0.00  0.00     0.159 C 
BRANCH  13  15
HETATM   15  C   UNL     1      -0.191  13.213  24.275  0.00  0.00     0.037 A 
HETATM   16  C   UNL     1       0.211  13.559  25.564  0.00  0.00     0.032 A 
HETATM   17  C   UNL     1       1.411  14.248  25.752  0.00  0.00     0.031 A 
HETATM   18  C   UNL     1       2.232  14.643  24.680  0.00  0.00     0.030 A 
HETATM   19  C   UNL     1       1.847  14.213  23.405  0.00  0.00     0.031 A 
HETATM   20  C   UNL     1       0.663  13.481  23.203  0.00  0.00     0.032 A 
BRANCH  18  21
HETATM   21  N   UNL     1       3.355  15.413  24.925  0.00  0.00    -0.377 N 
HETATM   22  C   UNL     1       4.112  15.403  26.189  0.00  0.00     0.149 C 
HETATM   23  C   UNL     1       5.515  14.808  26.001  0.00  0.00     0.187 C 
HETATM   24  O   UNL     1       6.218  15.486  24.947  0.00  0.00    -0.388 OA
HETATM   25  C   UNL     1       5.493  15.334  23.717  0.00  0.00     0.187 C 
HETATM   26  C   UNL     1       4.104  15.963  23.778  0.00  0.00     0.149 C 
ENDBRANCH  18  21
ENDBRANCH  13  15
ENDBRANCH   8  11
BRANCH   9  27
HETATM   27  O   UNL     1      -2.366  10.433  26.957  0.00  0.00    -0.360 OA
HETATM   28  H   UNL     1      -2.186  10.355  27.921  0.00  0.00     0.217 HD
ENDBRANCH   9  27
BRANCH   1  29
HETATM   29  C   UNL     1       3.329   8.483  23.873  0.00  0.00     0.275 C 
HETATM   30  N   UNL     1       3.167   7.649  22.764  0.00  0.00    -0.344 N 
HETATM   31  C   UNL     1       2.064   6.731  22.526  0.00  0.00     0.158 C 
HETATM   32  C   UNL     1       4.081   7.663  21.641  0.00  0.00     0.129 C 
HETATM   33  C   UNL     1       2.215   6.213  21.091  0.00  0.00     0.140 C 
HETATM   34  C   UNL     1       3.290   7.104  20.466  0.00  0.00     0.053 C 
HETATM   35  O   UNL     1       4.223   9.332  23.891  0.00  0.00    -0.266 OA
BRANCH  33  36
HETATM   36  O   UNL     1       0.945   6.308  20.438  0.00  0.00    -0.389 OA
HETATM   37  C   UNL     1       0.864   5.583  19.225  0.00  0.00     0.202 C 
ENDBRANCH  33  36
ENDBRANCH   1  29
TORSDOF 6
ENDMDL
MODEL 9
REMARK VINA RESULT:    -7.330      2.670      7.017
REMARK INTER + INTRA:         -11.833
REMARK INTER:                  -9.686
REMARK INTRA:                  -2.146
REMARK UNBOUND:                -2.146
REMARK  6 active torsions:
REMARK  status: ('A' for Active; 'I' for Inactive)
REMARK    1  A    between atoms: O_2  and  C_3 
REMARK       I    between atoms: N_7  and  C_8 
REMARK    2  A    between atoms: C_8  and  C_10 
REMARK    3  A    between atoms: C_17  and  C_21 
REMARK    4  A    between atoms: C_18  and  O_20 
REMARK       I    between atoms: C_21  and  N_23 
REMARK    5  A    between atoms: N_23  and  C_25 
REMARK    6  A    between atoms: C_28  and  N_31 
ROOT
HETATM    1  C   UNL     1       6.116  10.194  20.453  0.00  0.00     0.157 A 
HETATM    2  N   UNL     1       5.740  10.104  19.162  0.00  0.00    -0.168 NA
HETATM    3  N   UNL     1       4.904   9.064  19.117  0.00  0.00    -0.277 N 
HETATM    4  H   UNL     1       4.502   8.811  18.221  0.00  0.00     0.189 HD
HETATM    5  C   UNL     1       5.480   9.158  21.225  0.00  0.00     0.029 A 
HETATM    6  C   UNL     1       4.702   8.451  20.316  0.00  0.00     0.065 A 
HETATM    7  C   UNL     1       5.472   8.742  22.573  0.00  0.00     0.036 A 
HETATM    8  C   UNL     1       4.642   7.679  22.986  0.00  0.00     0.066 A 
HETATM    9  C   UNL     1       3.947   6.951  22.004  0.00  0.00     0.083 A 
HETATM   10  C   UNL     1       3.934   7.340  20.662  0.00  0.00     0.069 A 
ENDROOT
BRANCH   8  11
HETATM   11  C   UNL     1       4.523   7.281  24.429  0.00  0.00     0.260 C 
HETATM   12  O   UNL     1       5.226   6.329  24.787  0.00  0.00    -0.267 OA
HETATM   13  N   UNL     1       3.683   7.983  25.317  0.00  0.00    -0.318 N 
HETATM   14  C   UNL     1       3.707   7.649  26.736  0.00  0.00     0.159 C 
BRANCH  13  15
HETATM   15  C   UNL     1       2.664   8.886  24.921  0.00  0.00     0.037 A 
HETATM   16  C   UNL     1       2.931  10.249  24.819  0.00  0.00     0.032 A 
HETATM   17  C   UNL     1       1.887  11.141  24.568  0.00  0.00     0.031 A 
HETATM   18  C   UNL     1       0.549  10.724  24.442  0.00  0.00     0.030 A 
HETATM   19  C   UNL     1       0.319   9.343  24.469  0.00  0.00     0.031 A 
HETATM   20  C   UNL     1       1.367   8.428  24.678  0.00  0.00     0.032 A 
BRANCH  18  21
HETATM   21  N   UNL     1      -0.453  11.667  24.298  0.00  0.00    -0.377 N 
HETATM   22  C   UNL     1      -0.448  12.738  23.286  0.00  0.00     0.149 C 
HETATM   23  C   UNL     1      -1.558  12.535  22.245  0.00  0.00     0.187 C 
HETATM   24  O   UNL     1      -2.836  12.393  22.886  0.00  0.00    -0.388 OA
HETATM   25  C   UNL     1      -2.811  11.247  23.750  0.00  0.00     0.187 C 
HETATM   26  C   UNL     1      -1.784  11.384  24.870  0.00  0.00     0.149 C 
ENDBRANCH  18  21
ENDBRANCH  13  15
ENDBRANCH   8  11
BRANCH   9  27
HETATM   27  O   UNL     1       3.275   5.785  22.274  0.00  0.00    -0.360 OA
HETATM   28  H   UNL     1       2.446   5.800  21.745  0.00  0.00     0.217 HD
ENDBRANCH   9  27
BRANCH   1  29
HETATM   29  C   UNL     1       7.077  11.218  20.948  0.00  0.00     0.275 C 
HETATM   30  N   UNL     1       6.587  12.312  21.666  0.00  0.00    -0.344 N 
HETATM   31  C   UNL     1       5.224  12.493  22.141  0.00  0.00     0.158 C 
HETATM   32  C   UNL     1       7.438  13.399  22.103  0.00  0.00     0.129 C 
HETATM   33  C   UNL     1       5.231  13.723  23.057  0.00  0.00     0.140 C 
HETATM   34  C   UNL     1       6.711  14.035  23.281  0.00  0.00     0.053 C 
HETATM   35  O   UNL     1       8.286  11.102  20.735  0.00  0.00    -0.266 OA
BRANCH  33  36
HETATM   36  O   UNL     1       4.528  13.395  24.260  0.00  0.00    -0.389 OA
HETATM   37  C   UNL     1       5.331  13.435  25.426  0.00  0.00     0.202 C 
ENDBRANCH  33  36
ENDBRANCH   1  29
TORSDOF 6
ENDMDL
