MODEL 1
REMARK VINA RESULT:    -5.983      0.000      0.000
REMARK INTER + INTRA:          -8.845
REMARK INTER:                  -7.668
REMARK INTRA:                  -1.177
REMARK UNBOUND:                -1.113
REMARK  5 active torsions:
REMARK  status: ('A' for Active; 'I' for Inactive)
REMARK    1  A    between atoms: N8_1  and  C24_2 
REMARK    2  A    between atoms: N8_1  and  C7_8 
REMARK    3  A    between atoms: C2_13  and  N1_14 
REMARK    4  A    between atoms: N1_14  and  C17_15 
REMARK    5  A    between atoms: C14_16  and  C13_19 
ROOT
ATOM      1  C17 FTA A   1       6.660  12.936  12.148  1.00  0.00     0.142 C 
ATOM      2  C14 FTA A   1       6.386  12.659  10.858  1.00  0.00     0.158 C 
ATOM      3  C18 FTA A   1       6.730  13.608   9.821  1.00  0.00     0.069 C 
ATOM      4  N21 FTA A   1       7.011  14.489   9.100  1.00  0.00    -0.197 NA
ENDROOT
BRANCH   2   5
ATOM      5  C13 FTA A   1       5.744  11.371  10.511  1.00  0.00     0.197 A 
ATOM      6  N15 FTA A   1       4.492  10.934  10.938  1.00  0.00    -0.093 NA
ATOM      7  N19 FTA A   1       4.295   9.660  10.423  1.00  0.00    -0.231 N 
ATOM      8  N20 FTA A   1       5.408   9.292   9.681  1.00  0.00    -0.017 NA
ATOM      9  H15 FTA A   1       3.456   9.079  10.568  1.00  0.00     0.200 HD
ATOM     10  N16 FTA A   1       6.303  10.356   9.726  1.00  0.00    -0.090 NA
ENDBRANCH   2   5
BRANCH   1  11
ATOM     11  N1  FTA A   1       5.671  12.852  13.058  1.00  0.00    -0.389 N 
ATOM     12  H11 FTA A   1       5.536  11.947  13.532  1.00  0.00     0.159 HD
BRANCH  11  13
ATOM     13  C2  FTA A   1       4.797  13.916  13.413  1.00  0.00     0.028 A 
ATOM     14  C4  FTA A   1       5.146  14.876  14.360  1.00  0.00     0.031 A 
ATOM     15  C6  FTA A   1       4.162  15.755  14.831  1.00  0.00     0.031 A 
ATOM     16  C7  FTA A   1       2.844  15.699  14.385  1.00  0.00     0.032 A 
ATOM     17  C5  FTA A   1       2.519  14.755  13.426  1.00  0.00     0.031 A 
ATOM     18  C3  FTA A   1       3.477  13.866  12.956  1.00  0.00     0.031 A 
BRANCH  16  19
ATOM     19  N8  FTA A   1       1.793  16.431  14.995  1.00  0.00    -0.356 N 
ATOM     20  H1  FTA A   1       1.759  17.445  14.817  1.00  0.00     0.166 HD
BRANCH  19  21
ATOM     21  C24 FTA A   1       0.779  15.878  15.833  1.00  0.00     0.032 A 
ATOM     22  C26 FTA A   1       1.081  15.298  17.043  1.00  0.00     0.029 A 
ATOM     23  C28 FTA A   1       0.082  14.630  17.725  1.00  0.00     0.002 A 
ATOM     24  C30 FTA A   1      -1.217  14.551  17.250  1.00  0.00     0.000 A 
ATOM     25  C29 FTA A   1      -1.539  15.158  16.066  1.00  0.00     0.002 A 
ATOM     26  C27 FTA A   1      -0.529  15.832  15.371  1.00  0.00     0.029 A 
ENDBRANCH  19  21
ENDBRANCH  16  19
ENDBRANCH  11  13
ENDBRANCH   1  11
TORSDOF 5
ENDMDL
MODEL 2
REMARK VINA RESULT:    -5.906      2.625      8.708
REMARK INTER + INTRA:          -8.745
REMARK INTER:                  -7.820
REMARK INTRA:                  -0.925
REMARK UNBOUND:                -1.113
REMARK  5 active torsions:
REMARK  status: ('A' for Active; 'I' for Inactive)
REMARK    1  A    between atoms: N8_1  and  C24_2 
REMARK    2  A    between atoms: N8_1  and  C7_8 
REMARK    3  A    between atoms: C2_13  and  N1_14 
REMARK    4  A    between atoms: N1_14  and  C17_15 
REMARK    5  A    between atoms: C14_16  and  C13_19 
ROOT
ATOM      1  C17 FTA A   1       1.231  13.806  12.824  1.00  0.00     0.142 C 
ATOM      2  C14 FTA A   1       0.309  14.554  13.462  1.00  0.00     0.158 C 
ATOM      3  C18 FTA A   1      -0.930  14.902  12.800  1.00  0.00     0.069 C 
ATOM      4  N21 FTA A   1      -1.854  15.153  12.124  1.00  0.00    -0.197 NA
ENDROOT
BRANCH   2   5
ATOM      5  C13 FTA A   1       0.567  15.001  14.850  1.00  0.00     0.197 A 
ATOM      6  N15 FTA A   1       1.517  15.940  15.248  1.00  0.00    -0.093 NA
ATOM      7  N19 FTA A   1       1.460  16.031  16.632  1.00  0.00    -0.231 N 
ATOM      8  N20 FTA A   1       0.490  15.160  17.106  1.00  0.00    -0.017 NA
ATOM      9  H15 FTA A   1       2.046  16.647  17.215  1.00  0.00     0.200 HD
ATOM     10  N16 FTA A   1      -0.072  14.529  16.002  1.00  0.00    -0.090 NA
ENDBRANCH   2   5
BRANCH   1  11
ATOM     11  N1  FTA A   1       2.498  14.257  12.752  1.00  0.00    -0.389 N 
ATOM     12  H11 FTA A   1       2.668  15.242  13.000  1.00  0.00     0.159 HD
BRANCH  11  13
ATOM     13  C2  FTA A   1       3.620  13.477  12.359  1.00  0.00     0.028 A 
ATOM     14  C4  FTA A   1       3.506  12.411  11.470  1.00  0.00     0.031 A 
ATOM     15  C6  FTA A   1       4.596  11.545  11.304  1.00  0.00     0.031 A 
ATOM     16  C7  FTA A   1       5.789  11.715  12.001  1.00  0.00     0.032 A 
ATOM     17  C5  FTA A   1       5.895  12.793  12.861  1.00  0.00     0.031 A 
ATOM     18  C3  FTA A   1       4.822  13.655  13.050  1.00  0.00     0.031 A 
BRANCH  16  19
ATOM     19  N8  FTA A   1       6.821  10.742  12.009  1.00  0.00    -0.356 N 
ATOM     20  H1  FTA A   1       6.850  10.090  12.807  1.00  0.00     0.166 HD
BRANCH  19  21
ATOM     21  C24 FTA A   1       7.823  10.591  11.003  1.00  0.00     0.032 A 
ATOM     22  C26 FTA A   1       7.784   9.557  10.097  1.00  0.00     0.029 A 
ATOM     23  C28 FTA A   1       8.869   9.367   9.263  1.00  0.00     0.002 A 
ATOM     24  C30 FTA A   1       9.978  10.196   9.285  1.00  0.00     0.000 A 
ATOM     25  C29 FTA A   1      10.011  11.252  10.156  1.00  0.00     0.002 A 
ATOM     26  C27 FTA A   1       8.916  11.445  11.005  1.00  0.00     0.029 A 
ENDBRANCH  19  21
ENDBRANCH  16  19
ENDBRANCH  11  13
ENDBRANCH   1  11
TORSDOF 5
ENDMDL
MODEL 3
REMARK VINA RESULT:    -5.899      3.720      8.710
REMARK INTER + INTRA:          -8.736
REMARK INTER:                  -7.747
REMARK INTRA:                  -0.989
REMARK UNBOUND:                -1.113
REMARK  5 active torsions:
REMARK  status: ('A' for Active; 'I' for Inactive)
REMARK    1  A    between atoms: N8_1  and  C24_2 
REMARK    2  A    between atoms: N8_1  and  C7_8 
REMARK    3  A    between atoms: C2_13  and  N1_14 
REMARK    4  A    between atoms: N1_14  and  C17_15 
REMARK    5  A    between atoms: C14_16  and  C13_19 
ROOT
ATOM      1  C17 FTA A   1       5.634  15.287  16.318  1.00  0.00     0.142 C 
ATOM      2  C14 FTA A   1       6.354  16.057  17.159  1.00  0.00     0.158 C 
ATOM      3  C18 FTA A   1       5.749  16.576  18.367  1.00  0.00     0.069 C 
ATOM      4  N21 FTA A   1       5.117  16.971  19.272  1.00  0.00    -0.197 NA
ENDROOT
BRANCH   2   5
ATOM      5  C13 FTA A   1       7.770  16.354  16.843  1.00  0.00     0.197 A 
ATOM      6  N15 FTA A   1       8.249  16.906  15.657  1.00  0.00    -0.093 NA
ATOM      7  N19 FTA A   1       9.633  16.973  15.757  1.00  0.00    -0.231 N 
ATOM      8  N20 FTA A   1      10.025  16.468  16.988  1.00  0.00    -0.017 NA
ATOM      9  H15 FTA A   1      10.267  17.339  15.033  1.00  0.00     0.200 HD
ATOM     10  N16 FTA A   1       8.870  16.093  17.668  1.00  0.00    -0.090 NA
ENDBRANCH   2   5
BRANCH   1  11
ATOM     11  N1  FTA A   1       5.576  15.624  15.015  1.00  0.00    -0.389 N 
ATOM     12  H11 FTA A   1       5.225  16.564  14.782  1.00  0.00     0.159 HD
BRANCH  11  13
ATOM     13  C2  FTA A   1       5.961  14.781  13.938  1.00  0.00     0.028 A 
ATOM     14  C4  FTA A   1       6.858  15.196  12.956  1.00  0.00     0.031 A 
ATOM     15  C6  FTA A   1       7.017  14.412  11.805  1.00  0.00     0.031 A 
ATOM     16  C7  FTA A   1       6.305  13.231  11.610  1.00  0.00     0.032 A 
ATOM     17  C5  FTA A   1       5.436  12.820  12.605  1.00  0.00     0.031 A 
ATOM     18  C3  FTA A   1       5.255  13.590  13.747  1.00  0.00     0.031 A 
BRANCH  16  19
ATOM     19  N8  FTA A   1       6.291  12.537  10.373  1.00  0.00    -0.356 N 
ATOM     20  H1  FTA A   1       5.580  12.816   9.682  1.00  0.00     0.166 HD
BRANCH  19  21
ATOM     21  C24 FTA A   1       7.182  11.483  10.008  1.00  0.00     0.032 A 
ATOM     22  C26 FTA A   1       6.767  10.173   9.959  1.00  0.00     0.029 A 
ATOM     23  C28 FTA A   1       7.714   9.185   9.768  1.00  0.00     0.002 A 
ATOM     24  C30 FTA A   1       9.058   9.468   9.593  1.00  0.00     0.000 A 
ATOM     25  C29 FTA A   1       9.479  10.771   9.602  1.00  0.00     0.002 A 
ATOM     26  C27 FTA A   1       8.523  11.773   9.798  1.00  0.00     0.029 A 
ENDBRANCH  19  21
ENDBRANCH  16  19
ENDBRANCH  11  13
ENDBRANCH   1  11
TORSDOF 5
ENDMDL
MODEL 4
REMARK VINA RESULT:    -5.871      1.076      1.210
REMARK INTER + INTRA:          -8.700
REMARK INTER:                  -7.706
REMARK INTRA:                  -0.994
REMARK UNBOUND:                -1.113
REMARK  5 active torsions:
REMARK  status: ('A' for Active; 'I' for Inactive)
REMARK    1  A    between atoms: N8_1  and  C24_2 
REMARK    2  A    between atoms: N8_1  and  C7_8 
REMARK    3  A    between atoms: C2_13  and  N1_14 
REMARK    4  A    between atoms: N1_14  and  C17_15 
REMARK    5  A    between atoms: C14_16  and  C13_19 
ROOT
ATOM      1  C17 FTA A   1       6.325  12.678  12.412  1.00  0.00     0.142 C 
ATOM      2  C14 FTA A   1       7.099  12.309  11.373  1.00  0.00     0.158 C 
ATOM      3  C18 FTA A   1       8.156  13.181  10.908  1.00  0.00     0.069 C 
ATOM      4  N21 FTA A   1       8.931  14.007  10.606  1.00  0.00    -0.197 NA
ENDROOT
BRANCH   2   5
ATOM      5  C13 FTA A   1       6.869  10.999  10.722  1.00  0.00     0.197 A 
ATOM      6  N15 FTA A   1       5.747  10.634   9.981  1.00  0.00    -0.093 NA
ATOM      7  N19 FTA A   1       5.914   9.311   9.593  1.00  0.00    -0.231 N 
ATOM      8  N20 FTA A   1       7.124   8.843  10.083  1.00  0.00    -0.017 NA
ATOM      9  H15 FTA A   1       5.246   8.765   9.030  1.00  0.00     0.200 HD
ATOM     10  N16 FTA A   1       7.723   9.891  10.774  1.00  0.00    -0.090 NA
ENDBRANCH   2   5
BRANCH   1  11
ATOM     11  N1  FTA A   1       4.986  12.659  12.266  1.00  0.00    -0.389 N 
ATOM     12  H11 FTA A   1       4.565  11.820  11.839  1.00  0.00     0.159 HD
BRANCH  11  13
ATOM     13  C2  FTA A   1       4.108  13.707  12.655  1.00  0.00     0.028 A 
ATOM     14  C4  FTA A   1       4.516  14.743  13.492  1.00  0.00     0.031 A 
ATOM     15  C6  FTA A   1       3.550  15.610  14.021  1.00  0.00     0.031 A 
ATOM     16  C7  FTA A   1       2.194  15.469  13.737  1.00  0.00     0.032 A 
ATOM     17  C5  FTA A   1       1.808  14.451  12.884  1.00  0.00     0.031 A 
ATOM     18  C3  FTA A   1       2.748  13.572  12.361  1.00  0.00     0.031 A 
BRANCH  16  19
ATOM     19  N8  FTA A   1       1.186  16.197  14.420  1.00  0.00    -0.356 N 
ATOM     20  H1  FTA A   1       0.992  17.154  14.094  1.00  0.00     0.166 HD
BRANCH  19  21
ATOM     21  C24 FTA A   1       0.418  15.711  15.521  1.00  0.00     0.032 A 
ATOM     22  C26 FTA A   1       1.015  15.282  16.682  1.00  0.00     0.029 A 
ATOM     23  C28 FTA A   1       0.233  14.664  17.640  1.00  0.00     0.002 A 
ATOM     24  C30 FTA A   1      -1.132  14.491  17.486  1.00  0.00     0.000 A 
ATOM     25  C29 FTA A   1      -1.745  14.948  16.350  1.00  0.00     0.002 A 
ATOM     26  C27 FTA A   1      -0.955  15.571  15.376  1.00  0.00     0.029 A 
ENDBRANCH  19  21
ENDBRANCH  16  19
ENDBRANCH  11  13
ENDBRANCH   1  11
TORSDOF 5
ENDMDL
MODEL 5
REMARK VINA RESULT:    -5.838      3.525      8.694
REMARK INTER + INTRA:          -8.658
REMARK INTER:                  -7.658
REMARK INTRA:                  -1.000
REMARK UNBOUND:                -1.113
REMARK  5 active torsions:
REMARK  status: ('A' for Active; 'I' for Inactive)
REMARK    1  A    between atoms: N8_1  and  C24_2 
REMARK    2  A    between atoms: N8_1  and  C7_8 
REMARK    3  A    between atoms: C2_13  and  N1_14 
REMARK    4  A    between atoms: N1_14  and  C17_15 
REMARK    5  A    between atoms: C14_16  and  C13_19 
ROOT
ATOM      1  C17 FTA A   1       6.500  15.653  15.365  1.00  0.00     0.142 C 
ATOM      2  C14 FTA A   1       6.487  15.965  16.676  1.00  0.00     0.158 C 
ATOM      3  C18 FTA A   1       7.728  16.214  17.377  1.00  0.00     0.069 C 
ATOM      4  N21 FTA A   1       8.805  16.333  17.825  1.00  0.00    -0.197 NA
ENDROOT
BRANCH   2   5
ATOM      5  C13 FTA A   1       5.192  16.065  17.388  1.00  0.00     0.197 A 
ATOM      6  N15 FTA A   1       4.993  15.910  18.758  1.00  0.00    -0.093 NA
ATOM      7  N19 FTA A   1       3.631  16.036  18.999  1.00  0.00    -0.231 N 
ATOM      8  N20 FTA A   1       2.975  16.263  17.798  1.00  0.00    -0.017 NA
ATOM      9  H15 FTA A   1       3.179  15.970  19.922  1.00  0.00     0.200 HD
ATOM     10  N16 FTA A   1       3.943  16.292  16.799  1.00  0.00    -0.090 NA
ENDBRANCH   2   5
BRANCH   1  11
ATOM     11  N1  FTA A   1       5.857  14.544  14.953  1.00  0.00    -0.389 N 
ATOM     12  H11 FTA A   1       5.407  13.959  15.672  1.00  0.00     0.159 HD
BRANCH  11  13
ATOM     13  C2  FTA A   1       5.752  14.117  13.601  1.00  0.00     0.028 A 
ATOM     14  C4  FTA A   1       4.875  13.110  13.207  1.00  0.00     0.031 A 
ATOM     15  C6  FTA A   1       4.984  12.580  11.914  1.00  0.00     0.031 A 
ATOM     16  C7  FTA A   1       5.944  13.027  11.010  1.00  0.00     0.032 A 
ATOM     17  C5  FTA A   1       6.791  14.046  11.407  1.00  0.00     0.031 A 
ATOM     18  C3  FTA A   1       6.708  14.575  12.689  1.00  0.00     0.031 A 
BRANCH  16  19
ATOM     19  N8  FTA A   1       6.209  12.369   9.782  1.00  0.00    -0.356 N 
ATOM     20  H1  FTA A   1       5.652  12.654   8.963  1.00  0.00     0.166 HD
BRANCH  19  21
ATOM     21  C24 FTA A   1       7.185  11.346   9.586  1.00  0.00     0.032 A 
ATOM     22  C26 FTA A   1       6.994  10.069  10.058  1.00  0.00     0.029 A 
ATOM     23  C28 FTA A   1       8.044   9.173   9.989  1.00  0.00     0.002 A 
ATOM     24  C30 FTA A   1       9.269   9.505   9.435  1.00  0.00     0.000 A 
ATOM     25  C29 FTA A   1       9.459  10.763   8.927  1.00  0.00     0.002 A 
ATOM     26  C27 FTA A   1       8.399  11.673   8.999  1.00  0.00     0.029 A 
ENDBRANCH  19  21
ENDBRANCH  16  19
ENDBRANCH  11  13
ENDBRANCH   1  11
TORSDOF 5
ENDMDL
MODEL 6
REMARK VINA RESULT:    -5.835      3.446      8.625
REMARK INTER + INTRA:          -8.653
REMARK INTER:                  -7.806
REMARK INTRA:                  -0.847
REMARK UNBOUND:                -1.113
REMARK  5 active torsions:
REMARK  status: ('A' for Active; 'I' for Inactive)
REMARK    1  A    between atoms: N8_1  and  C24_2 
REMARK    2  A    between atoms: N8_1  and  C7_8 
REMARK    3  A    between atoms: C2_13  and  N1_14 
REMARK    4  A    between atoms: N1_14  and  C17_15 
REMARK    5  A    between atoms: C14_16  and  C13_19 
ROOT
ATOM      1  C17 FTA A   1       2.078  14.173  12.829  1.00  0.00     0.142 C 
ATOM      2  C14 FTA A   1       0.798  14.340  13.216  1.00  0.00     0.158 C 
ATOM      3  C18 FTA A   1       0.493  14.705  14.582  1.00  0.00     0.069 C 
ATOM      4  N21 FTA A   1       0.394  14.944  15.726  1.00  0.00    -0.197 NA
ENDROOT
BRANCH   2   5
ATOM      5  C13 FTA A   1      -0.291  14.160  12.228  1.00  0.00     0.197 A 
ATOM      6  N15 FTA A   1      -1.593  14.643  12.342  1.00  0.00    -0.093 NA
ATOM      7  N19 FTA A   1      -2.297  14.214  11.225  1.00  0.00    -0.231 N 
ATOM      8  N20 FTA A   1      -1.454  13.466  10.415  1.00  0.00    -0.017 NA
ATOM      9  H15 FTA A   1      -3.288  14.417  11.029  1.00  0.00     0.200 HD
ATOM     10  N16 FTA A   1      -0.207  13.441  11.030  1.00  0.00    -0.090 NA
ENDBRANCH   2   5
BRANCH   1  11
ATOM     11  N1  FTA A   1       2.430  13.026  12.216  1.00  0.00    -0.389 N 
ATOM     12  H11 FTA A   1       1.673  12.393  11.921  1.00  0.00     0.159 HD
BRANCH  11  13
ATOM     13  C2  FTA A   1       3.766  12.624  11.945  1.00  0.00     0.028 A 
ATOM     14  C4  FTA A   1       4.063  11.588  11.063  1.00  0.00     0.031 A 
ATOM     15  C6  FTA A   1       5.372  11.090  11.015  1.00  0.00     0.031 A 
ATOM     16  C7  FTA A   1       6.386  11.596  11.824  1.00  0.00     0.032 A 
ATOM     17  C5  FTA A   1       6.081  12.641  12.677  1.00  0.00     0.031 A 
ATOM     18  C3  FTA A   1       4.786  13.140  12.749  1.00  0.00     0.031 A 
BRANCH  16  19
ATOM     19  N8  FTA A   1       7.656  10.975  11.945  1.00  0.00    -0.356 N 
ATOM     20  H1  FTA A   1       7.949  10.679  12.888  1.00  0.00     0.166 HD
BRANCH  19  21
ATOM     21  C24 FTA A   1       8.561  10.727  10.869  1.00  0.00     0.032 A 
ATOM     22  C26 FTA A   1       8.461   9.599  10.089  1.00  0.00     0.029 A 
ATOM     23  C28 FTA A   1       9.466   9.332   9.179  1.00  0.00     0.002 A 
ATOM     24  C30 FTA A   1      10.552  10.173   9.004  1.00  0.00     0.000 A 
ATOM     25  C29 FTA A   1      10.644  11.319   9.748  1.00  0.00     0.002 A 
ATOM     26  C27 FTA A   1       9.629  11.590  10.673  1.00  0.00     0.029 A 
ENDBRANCH  19  21
ENDBRANCH  16  19
ENDBRANCH  11  13
ENDBRANCH   1  11
TORSDOF 5
ENDMDL
MODEL 7
REMARK VINA RESULT:    -5.790      3.105      8.746
REMARK INTER + INTRA:          -8.595
REMARK INTER:                  -7.672
REMARK INTRA:                  -0.923
REMARK UNBOUND:                -1.113
REMARK  5 active torsions:
REMARK  status: ('A' for Active; 'I' for Inactive)
REMARK    1  A    between atoms: N8_1  and  C24_2 
REMARK    2  A    between atoms: N8_1  and  C7_8 
REMARK    3  A    between atoms: C2_13  and  N1_14 
REMARK    4  A    between atoms: N1_14  and  C17_15 
REMARK    5  A    between atoms: C14_16  and  C13_19 
ROOT
ATOM      1  C17 FTA A   1       1.164  13.006  12.233  1.00  0.00     0.142 C 
ATOM      2  C14 FTA A   1       0.063  13.783  12.240  1.00  0.00     0.158 C 
ATOM      3  C18 FTA A   1      -0.909  13.676  11.173  1.00  0.00     0.069 C 
ATOM      4  N21 FTA A   1      -1.577  13.523  10.221  1.00  0.00    -0.197 NA
ENDROOT
BRANCH   2   5
ATOM      5  C13 FTA A   1      -0.150  14.734  13.355  1.00  0.00     0.197 A 
ATOM      6  N15 FTA A   1      -0.898  15.908  13.303  1.00  0.00    -0.093 NA
ATOM      7  N19 FTA A   1      -0.801  16.521  14.545  1.00  0.00    -0.231 N 
ATOM      8  N20 FTA A   1       0.000  15.748  15.372  1.00  0.00    -0.017 NA
ATOM      9  H15 FTA A   1      -1.251  17.409  14.810  1.00  0.00     0.200 HD
ATOM     10  N16 FTA A   1       0.396  14.634  14.640  1.00  0.00    -0.090 NA
ENDBRANCH   2   5
BRANCH   1  11
ATOM     11  N1  FTA A   1       2.373  13.589  12.352  1.00  0.00    -0.389 N 
ATOM     12  H11 FTA A   1       2.402  14.560  12.695  1.00  0.00     0.159 HD
BRANCH  11  13
ATOM     13  C2  FTA A   1       3.612  12.966  12.039  1.00  0.00     0.028 A 
ATOM     14  C4  FTA A   1       3.703  11.906  11.140  1.00  0.00     0.031 A 
ATOM     15  C6  FTA A   1       4.905  11.191  11.052  1.00  0.00     0.031 A 
ATOM     16  C7  FTA A   1       6.012  11.505  11.835  1.00  0.00     0.032 A 
ATOM     17  C5  FTA A   1       5.914  12.576  12.705  1.00  0.00     0.031 A 
ATOM     18  C3  FTA A   1       4.727  13.289  12.818  1.00  0.00     0.031 A 
BRANCH  16  19
ATOM     19  N8  FTA A   1       7.159  10.674  11.915  1.00  0.00    -0.356 N 
ATOM     20  H1  FTA A   1       7.280  10.117  12.774  1.00  0.00     0.166 HD
BRANCH  19  21
ATOM     21  C24 FTA A   1       8.159  10.544  10.904  1.00  0.00     0.032 A 
ATOM     22  C26 FTA A   1       8.179   9.472  10.044  1.00  0.00     0.029 A 
ATOM     23  C28 FTA A   1       9.267   9.316   9.206  1.00  0.00     0.002 A 
ATOM     24  C30 FTA A   1      10.318  10.217   9.178  1.00  0.00     0.000 A 
ATOM     25  C29 FTA A   1      10.291  11.310  10.003  1.00  0.00     0.002 A 
ATOM     26  C27 FTA A   1       9.193  11.468  10.856  1.00  0.00     0.029 A 
ENDBRANCH  19  21
ENDBRANCH  16  19
ENDBRANCH  11  13
ENDBRANCH   1  11
TORSDOF 5
ENDMDL
MODEL 8
REMARK VINA RESULT:    -5.785      3.443      5.116
REMARK INTER + INTRA:          -8.588
REMARK INTER:                  -7.746
REMARK INTRA:                  -0.842
REMARK UNBOUND:                -1.113
REMARK  5 active torsions:
REMARK  status: ('A' for Active; 'I' for Inactive)
REMARK    1  A    between atoms: N8_1  and  C24_2 
REMARK    2  A    between atoms: N8_1  and  C7_8 
REMARK    3  A    between atoms: C2_13  and  N1_14 
REMARK    4  A    between atoms: N1_14  and  C17_15 
REMARK    5  A    between atoms: C14_16  and  C13_19 
ROOT
ATOM      1  C17 FTA A   1       8.026   9.815   9.897  1.00  0.00     0.142 C 
ATOM      2  C14 FTA A   1       9.191  10.414   9.579  1.00  0.00     0.158 C 
ATOM      3  C18 FTA A   1      10.326   9.620   9.161  1.00  0.00     0.069 C 
ATOM      4  N21 FTA A   1      11.172   8.852   8.896  1.00  0.00    -0.197 NA
ENDROOT
BRANCH   2   5
ATOM      5  C13 FTA A   1       9.294  11.890   9.648  1.00  0.00     0.197 A 
ATOM      6  N15 FTA A   1       9.804  12.630  10.712  1.00  0.00    -0.093 NA
ATOM      7  N19 FTA A   1       9.673  13.974  10.386  1.00  0.00    -0.231 N 
ATOM      8  N20 FTA A   1       9.086  14.084   9.135  1.00  0.00    -0.017 NA
ATOM      9  H15 FTA A   1       9.966  14.763  10.980  1.00  0.00     0.200 HD
ATOM     10  N16 FTA A   1       8.859  12.792   8.670  1.00  0.00    -0.090 NA
ENDBRANCH   2   5
BRANCH   1  11
ATOM     11  N1  FTA A   1       7.455  10.090  11.086  1.00  0.00    -0.389 N 
ATOM     12  H11 FTA A   1       7.787   9.563  11.906  1.00  0.00     0.159 HD
BRANCH  11  13
ATOM     13  C2  FTA A   1       6.430  11.053  11.294  1.00  0.00     0.028 A 
ATOM     14  C4  FTA A   1       6.583  12.118  12.179  1.00  0.00     0.031 A 
ATOM     15  C6  FTA A   1       5.462  12.892  12.511  1.00  0.00     0.031 A 
ATOM     16  C7  FTA A   1       4.200  12.629  11.986  1.00  0.00     0.032 A 
ATOM     17  C5  FTA A   1       4.070  11.583  11.089  1.00  0.00     0.031 A 
ATOM     18  C3  FTA A   1       5.166  10.796  10.757  1.00  0.00     0.031 A 
BRANCH  16  19
ATOM     19  N8  FTA A   1       3.022  13.259  12.462  1.00  0.00    -0.356 N 
ATOM     20  H1  FTA A   1       3.018  13.574  13.443  1.00  0.00     0.166 HD
BRANCH  19  21
ATOM     21  C24 FTA A   1       1.840  13.492  11.695  1.00  0.00     0.032 A 
ATOM     22  C26 FTA A   1       1.879  14.174  10.502  1.00  0.00     0.029 A 
ATOM     23  C28 FTA A   1       0.686  14.517   9.896  1.00  0.00     0.002 A 
ATOM     24  C30 FTA A   1      -0.544  14.172  10.430  1.00  0.00     0.000 A 
ATOM     25  C29 FTA A   1      -0.596  13.459  11.598  1.00  0.00     0.002 A 
ATOM     26  C27 FTA A   1       0.611  13.114  12.216  1.00  0.00     0.029 A 
ENDBRANCH  19  21
ENDBRANCH  16  19
ENDBRANCH  11  13
ENDBRANCH   1  11
TORSDOF 5
ENDMDL
MODEL 9
REMARK VINA RESULT:    -5.676      2.997      4.170
REMARK INTER + INTRA:          -8.448
REMARK INTER:                  -7.336
REMARK INTRA:                  -1.113
REMARK UNBOUND:                -1.113
REMARK  5 active torsions:
REMARK  status: ('A' for Active; 'I' for Inactive)
REMARK    1  A    between atoms: N8_1  and  C24_2 
REMARK    2  A    between atoms: N8_1  and  C7_8 
REMARK    3  A    between atoms: C2_13  and  N1_14 
REMARK    4  A    between atoms: N1_14  and  C17_15 
REMARK    5  A    between atoms: C14_16  and  C13_19 
ROOT
ATOM      1  C17 FTA A   1       7.269  12.858  11.855  1.00  0.00     0.142 C 
ATOM      2  C14 FTA A   1       7.479  12.425  10.596  1.00  0.00     0.158 C 
ATOM      3  C18 FTA A   1       7.507  13.367   9.498  1.00  0.00     0.069 C 
ATOM      4  N21 FTA A   1       7.446  14.230   8.706  1.00  0.00    -0.197 NA
ENDROOT
BRANCH   2   5
ATOM      5  C13 FTA A   1       7.696  10.981  10.350  1.00  0.00     0.197 A 
ATOM      6  N15 FTA A   1       8.890  10.386   9.948  1.00  0.00    -0.093 NA
ATOM      7  N19 FTA A   1       8.647   9.028   9.789  1.00  0.00    -0.231 N 
ATOM      8  N20 FTA A   1       7.317   8.766  10.083  1.00  0.00    -0.017 NA
ATOM      9  H15 FTA A   1       9.344   8.326   9.498  1.00  0.00     0.200 HD
ATOM     10  N16 FTA A   1       6.728   9.974  10.441  1.00  0.00    -0.090 NA
ENDBRANCH   2   5
BRANCH   1  11
ATOM     11  N1  FTA A   1       6.290  12.290  12.585  1.00  0.00    -0.389 N 
ATOM     12  H11 FTA A   1       6.556  11.532  13.230  1.00  0.00     0.159 HD
BRANCH  11  13
ATOM     13  C2  FTA A   1       4.917  12.656  12.532  1.00  0.00     0.028 A 
ATOM     14  C4  FTA A   1       4.033  12.087  11.619  1.00  0.00     0.031 A 
ATOM     15  C6  FTA A   1       2.759  12.651  11.463  1.00  0.00     0.031 A 
ATOM     16  C7  FTA A   1       2.350  13.765  12.192  1.00  0.00     0.032 A 
ATOM     17  C5  FTA A   1       3.230  14.303  13.113  1.00  0.00     0.031 A 
ATOM     18  C3  FTA A   1       4.502  13.766  13.272  1.00  0.00     0.031 A 
BRANCH  16  19
ATOM     19  N8  FTA A   1       1.156  14.476  11.905  1.00  0.00    -0.356 N 
ATOM     20  H1  FTA A   1       1.017  15.378  12.383  1.00  0.00     0.166 HD
BRANCH  19  21
ATOM     21  C24 FTA A   1       0.132  14.045  11.008  1.00  0.00     0.032 A 
ATOM     22  C26 FTA A   1       0.166  14.362   9.670  1.00  0.00     0.029 A 
ATOM     23  C28 FTA A   1      -0.937  14.064   8.892  1.00  0.00     0.002 A 
ATOM     24  C30 FTA A   1      -2.058  13.432   9.402  1.00  0.00     0.000 A 
ATOM     25  C29 FTA A   1      -2.087  13.076  10.724  1.00  0.00     0.002 A 
ATOM     26  C27 FTA A   1      -0.974  13.380  11.516  1.00  0.00     0.029 A 
ENDBRANCH  19  21
ENDBRANCH  16  19
ENDBRANCH  11  13
ENDBRANCH   1  11
TORSDOF 5
ENDMDL
