MODEL 1
REMARK VINA RESULT:    -7.021      0.000      0.000
REMARK INTER + INTRA:         -12.783
REMARK INTER:                 -10.526
REMARK INTRA:                  -2.257
REMARK UNBOUND:                -2.274
REMARK  9 active torsions:
REMARK  status: ('A' for Active; 'I' for Inactive)
REMARK    1  A    between atoms: C_2  and  C_4 
REMARK    2  A    between atoms: C_4  and  C_5 
REMARK    3  A    between atoms: C_5  and  C_6 
REMARK    4  A    between atoms: C_6  and  O_7 
REMARK    5  A    between atoms: O_7  and  C_8 
REMARK    6  A    between atoms: C_9  and  O_10 
REMARK    7  A    between atoms: C_14  and  C_16 
REMARK    8  A    between atoms: C_20  and  N_22 
REMARK    9  A    between atoms: C_27  and  C_29 
REMARK       I    between atoms: C_29  and  N_31 
ROOT
HETATM    1  C   UNL     1       6.087  12.740  21.566  0.00  0.00     0.014 A 
HETATM    2  C   UNL     1       4.941  13.364  22.166  0.00  0.00     0.096 A 
HETATM    3  C   UNL     1       3.626  12.777  22.134  0.00  0.00     0.103 C 
HETATM    4  N   UNL     1       2.554  12.345  22.133  0.00  0.00    -0.191 NA
HETATM    5  C   UNL     1       5.071  14.562  22.865  0.00  0.00     0.123 A 
HETATM    6  N   UNL     1       6.239  15.143  23.118  0.00  0.00    -0.227 NA
HETATM    7  C   UNL     1       7.364  13.365  21.839  0.00  0.00     0.040 A 
HETATM    8  C   UNL     1       7.320  14.517  22.630  0.00  0.00     0.113 A 
HETATM    9  C   UNL     1       8.771  13.121  21.511  0.00  0.00     0.062 A 
HETATM   10  N   UNL     1       9.233  12.150  20.685  0.00  0.00    -0.397 N 
HETATM   11  C   UNL     1       9.660  13.969  22.156  0.00  0.00     0.101 A 
HETATM   12  S   UNL     1       8.831  15.168  23.030  0.00  0.00    -0.062 SA
HETATM   13  H   UNL     1       8.684  11.847  19.882  0.00  0.00     0.156 HD
HETATM   14  H   UNL     1      10.239  12.087  20.497  0.00  0.00     0.156 HD
ENDROOT
BRANCH   1  15
HETATM   15  C   UNL     1       5.955  11.503  20.730  0.00  0.00    -0.021 A 
HETATM   16  C   UNL     1       5.618  11.523  19.372  0.00  0.00     0.015 A 
HETATM   17  C   UNL     1       5.464  10.346  18.622  0.00  0.00     0.040 A 
HETATM   18  C   UNL     1       5.782   9.104  19.170  0.00  0.00     0.101 A 
HETATM   19  C   UNL     1       6.179   9.042  20.509  0.00  0.00     0.102 A 
HETATM   20  C   UNL     1       6.211  10.224  21.273  0.00  0.00     0.052 A 
BRANCH  18  21
HETATM   21  O   UNL     1       5.698   7.918  18.488  0.00  0.00    -0.353 OA
HETATM   22  C   UNL     1       5.796   7.991  17.074  0.00  0.00     0.210 C 
ENDBRANCH  18  21
BRANCH  19  23
HETATM   23  O   UNL     1       6.552   7.805  20.987  0.00  0.00    -0.348 OA
BRANCH  23  24
HETATM   24  C   UNL     1       6.908   7.758  22.372  0.00  0.00     0.176 C 
BRANCH  24  25
HETATM   25  C   UNL     1       8.417   7.586  22.508  0.00  0.00     0.037 C 
BRANCH  25  26
HETATM   26  C   UNL     1       8.968   8.296  23.742  0.00  0.00     0.115 C 
BRANCH  26  27
HETATM   27  C   UNL     1       9.201   9.781  23.459  0.00  0.00     0.172 C 
HETATM   28  O   UNL     1      10.158  10.028  22.668  0.00  0.00    -0.648 OA
HETATM   29  O   UNL     1       8.406  10.573  24.034  0.00  0.00    -0.648 OA
ENDBRANCH  26  27
ENDBRANCH  25  26
ENDBRANCH  24  25
ENDBRANCH  23  24
ENDBRANCH  19  23
ENDBRANCH   1  15
BRANCH   5  30
HETATM   30  N   UNL     1       3.982  15.224  23.440  0.00  0.00    -0.286 NA
HETATM   31  H   UNL     1       3.206  14.599  23.646  0.00  0.00     0.125 HD
HETATM   32  H   UNL     1       3.707  15.971  22.808  0.00  0.00     0.125 HD
ENDBRANCH   5  30
BRANCH  11  33
HETATM   33  C   UNL     1      11.114  13.949  22.132  0.00  0.00     0.258 C 
HETATM   34  O   UNL     1      11.791  12.975  21.794  0.00  0.00    -0.267 OA
HETATM   35  N   UNL     1      11.767  15.090  22.513  0.00  0.00    -0.365 N 
HETATM   36  H   UNL     1      11.264  15.926  22.776  0.00  0.00     0.159 HD
HETATM   37  H   UNL     1      12.776  15.092  22.494  0.00  0.00     0.159 HD
ENDBRANCH  11  33
TORSDOF 9
ENDMDL
MODEL 2
REMARK VINA RESULT:    -6.894      2.629      5.869
REMARK INTER + INTRA:         -12.594
REMARK INTER:                 -11.297
REMARK INTRA:                  -1.296
REMARK UNBOUND:                -2.274
REMARK  9 active torsions:
REMARK  status: ('A' for Active; 'I' for Inactive)
REMARK    1  A    between atoms: C_2  and  C_4 
REMARK    2  A    between atoms: C_4  and  C_5 
REMARK    3  A    between atoms: C_5  and  C_6 
REMARK    4  A    between atoms: C_6  and  O_7 
REMARK    5  A    between atoms: O_7  and  C_8 
REMARK    6  A    between atoms: C_9  and  O_10 
REMARK    7  A    between atoms: C_14  and  C_16 
REMARK    8  A    between atoms: C_20  and  N_22 
REMARK    9  A    between atoms: C_27  and  C_29 
REMARK       I    between atoms: C_29  and  N_31 
ROOT
HETATM    1  C   UNL     1       6.965  13.024  21.785  0.00  0.00     0.014 A 
HETATM    2  C   UNL     1       8.206  13.708  21.554  0.00  0.00     0.096 A 
HETATM    3  C   UNL     1       9.243  13.179  20.705  0.00  0.00     0.103 C 
HETATM    4  N   UNL     1      10.102  12.794  20.033  0.00  0.00    -0.191 NA
HETATM    5  C   UNL     1       8.439  14.964  22.110  0.00  0.00     0.123 A 
HETATM    6  N   UNL     1       7.522  15.651  22.783  0.00  0.00    -0.227 NA
HETATM    7  C   UNL     1       5.959  13.767  22.515  0.00  0.00     0.040 A 
HETATM    8  C   UNL     1       6.332  15.049  22.929  0.00  0.00     0.113 A 
HETATM    9  C   UNL     1       4.582  13.552  22.965  0.00  0.00     0.062 A 
HETATM   10  N   UNL     1       3.881  12.399  22.842  0.00  0.00    -0.397 N 
HETATM   11  C   UNL     1       3.988  14.672  23.530  0.00  0.00     0.101 A 
HETATM   12  S   UNL     1       5.106  15.942  23.682  0.00  0.00    -0.062 SA
HETATM   13  H   UNL     1       4.352  11.497  22.890  0.00  0.00     0.156 HD
HETATM   14  H   UNL     1       2.930  12.345  23.222  0.00  0.00     0.156 HD
ENDROOT
BRANCH   1  15
HETATM   15  C   UNL     1       6.731  11.634  21.274  0.00  0.00    -0.021 A 
HETATM   16  C   UNL     1       6.762  10.499  22.092  0.00  0.00     0.015 A 
HETATM   17  C   UNL     1       6.578   9.204  21.580  0.00  0.00     0.040 A 
HETATM   18  C   UNL     1       6.211   9.008  20.249  0.00  0.00     0.101 A 
HETATM   19  C   UNL     1       6.112  10.121  19.409  0.00  0.00     0.102 A 
HETATM   20  C   UNL     1       6.419  11.398  19.917  0.00  0.00     0.052 A 
BRANCH  18  21
HETATM   21  O   UNL     1       5.973   7.780  19.689  0.00  0.00    -0.353 OA
HETATM   22  C   UNL     1       4.950   6.998  20.288  0.00  0.00     0.210 C 
ENDBRANCH  18  21
BRANCH  19  23
HETATM   23  O   UNL     1       5.678   9.888  18.123  0.00  0.00    -0.348 OA
BRANCH  23  24
HETATM   24  C   UNL     1       4.611  10.727  17.667  0.00  0.00     0.176 C 
BRANCH  24  25
HETATM   25  C   UNL     1       3.948  10.095  16.447  0.00  0.00     0.037 C 
BRANCH  25  26
HETATM   26  C   UNL     1       4.104   8.577  16.430  0.00  0.00     0.115 C 
BRANCH  26  27
HETATM   27  C   UNL     1       2.781   7.889  16.772  0.00  0.00     0.172 C 
HETATM   28  O   UNL     1       2.467   7.919  17.997  0.00  0.00    -0.648 OA
HETATM   29  O   UNL     1       2.162   7.391  15.792  0.00  0.00    -0.648 OA
ENDBRANCH  26  27
ENDBRANCH  25  26
ENDBRANCH  24  25
ENDBRANCH  23  24
ENDBRANCH  19  23
ENDBRANCH   1  15
BRANCH   5  30
HETATM   30  N   UNL     1       9.642  15.656  21.940  0.00  0.00    -0.286 NA
HETATM   31  H   UNL     1       9.731  16.450  22.569  0.00  0.00     0.125 HD
HETATM   32  H   UNL     1       9.699  15.939  20.965  0.00  0.00     0.125 HD
ENDBRANCH   5  30
BRANCH  11  33
HETATM   33  C   UNL     1       2.619  14.838  23.994  0.00  0.00     0.258 C 
HETATM   34  O   UNL     1       1.639  14.928  23.251  0.00  0.00    -0.267 OA
HETATM   35  N   UNL     1       2.415  14.899  25.346  0.00  0.00    -0.365 N 
HETATM   36  H   UNL     1       3.178  14.806  26.002  0.00  0.00     0.159 HD
HETATM   37  H   UNL     1       1.469  15.007  25.682  0.00  0.00     0.159 HD
ENDBRANCH  11  33
TORSDOF 9
ENDMDL
MODEL 3
REMARK VINA RESULT:    -6.811      3.628      5.587
REMARK INTER + INTRA:         -12.469
REMARK INTER:                 -10.380
REMARK INTRA:                  -2.088
REMARK UNBOUND:                -2.274
REMARK  9 active torsions:
REMARK  status: ('A' for Active; 'I' for Inactive)
REMARK    1  A    between atoms: C_2  and  C_4 
REMARK    2  A    between atoms: C_4  and  C_5 
REMARK    3  A    between atoms: C_5  and  C_6 
REMARK    4  A    between atoms: C_6  and  O_7 
REMARK    5  A    between atoms: O_7  and  C_8 
REMARK    6  A    between atoms: C_9  and  O_10 
REMARK    7  A    between atoms: C_14  and  C_16 
REMARK    8  A    between atoms: C_20  and  N_22 
REMARK    9  A    between atoms: C_27  and  C_29 
REMARK       I    between atoms: C_29  and  N_31 
ROOT
HETATM    1  C   UNL     1       7.989  12.377  22.699  0.00  0.00     0.014 A 
HETATM    2  C   UNL     1       8.374  12.276  21.320  0.00  0.00     0.096 A 
HETATM    3  C   UNL     1       7.508  11.731  20.305  0.00  0.00     0.103 C 
HETATM    4  N   UNL     1       6.848  11.302  19.458  0.00  0.00    -0.191 NA
HETATM    5  C   UNL     1       9.607  12.762  20.889  0.00  0.00     0.123 A 
HETATM    6  N   UNL     1      10.446  13.433  21.671  0.00  0.00    -0.227 NA
HETATM    7  C   UNL     1       8.897  13.109  23.558  0.00  0.00     0.040 A 
HETATM    8  C   UNL     1      10.051  13.602  22.942  0.00  0.00     0.113 A 
HETATM    9  C   UNL     1       8.955  13.509  24.965  0.00  0.00     0.062 A 
HETATM   10  N   UNL     1       8.068  13.152  25.926  0.00  0.00    -0.397 N 
HETATM   11  C   UNL     1      10.014  14.353  25.273  0.00  0.00     0.101 A 
HETATM   12  S   UNL     1      11.043  14.548  23.935  0.00  0.00    -0.062 SA
HETATM   13  H   UNL     1       7.608  12.243  25.895  0.00  0.00     0.156 HD
HETATM   14  H   UNL     1       8.221  13.461  26.892  0.00  0.00     0.156 HD
ENDROOT
BRANCH   1  15
HETATM   15  C   UNL     1       6.710  11.777  23.200  0.00  0.00    -0.021 A 
HETATM   16  C   UNL     1       6.605  10.457  23.652  0.00  0.00     0.015 A 
HETATM   17  C   UNL     1       5.385   9.908  24.080  0.00  0.00     0.040 A 
HETATM   18  C   UNL     1       4.249  10.707  24.208  0.00  0.00     0.101 A 
HETATM   19  C   UNL     1       4.324  12.049  23.822  0.00  0.00     0.102 A 
HETATM   20  C   UNL     1       5.527  12.544  23.283  0.00  0.00     0.052 A 
BRANCH  18  21
HETATM   21  O   UNL     1       3.036  10.254  24.658  0.00  0.00    -0.353 OA
HETATM   22  C   UNL     1       3.016   8.953  25.225  0.00  0.00     0.210 C 
ENDBRANCH  18  21
BRANCH  19  23
HETATM   23  O   UNL     1       3.200  12.817  24.032  0.00  0.00    -0.348 OA
BRANCH  23  24
HETATM   24  C   UNL     1       3.202  14.103  23.404  0.00  0.00     0.176 C 
BRANCH  24  25
HETATM   25  C   UNL     1       3.596  15.169  24.419  0.00  0.00     0.037 C 
BRANCH  25  26
HETATM   26  C   UNL     1       4.534  16.215  23.820  0.00  0.00     0.115 C 
BRANCH  26  27
HETATM   27  C   UNL     1       5.996  15.844  24.070  0.00  0.00     0.172 C 
HETATM   28  O   UNL     1       6.740  15.897  23.048  0.00  0.00    -0.648 OA
HETATM   29  O   UNL     1       6.283  15.546  25.262  0.00  0.00    -0.648 OA
ENDBRANCH  26  27
ENDBRANCH  25  26
ENDBRANCH  24  25
ENDBRANCH  23  24
ENDBRANCH  19  23
ENDBRANCH   1  15
BRANCH   5  30
HETATM   30  N   UNL     1      10.039  12.659  19.564  0.00  0.00    -0.286 NA
HETATM   31  H   UNL     1      11.013  12.929  19.446  0.00  0.00     0.125 HD
HETATM   32  H   UNL     1       9.419  13.226  18.992  0.00  0.00     0.125 HD
ENDBRANCH   5  30
BRANCH  11  33
HETATM   33  C   UNL     1      10.317  15.006  26.537  0.00  0.00     0.258 C 
HETATM   34  O   UNL     1       9.576  15.819  27.095  0.00  0.00    -0.267 OA
HETATM   35  N   UNL     1      11.506  14.695  27.137  0.00  0.00    -0.365 N 
HETATM   36  H   UNL     1      12.141  14.018  26.738  0.00  0.00     0.159 HD
HETATM   37  H   UNL     1      11.726  15.136  28.019  0.00  0.00     0.159 HD
ENDBRANCH  11  33
TORSDOF 9
ENDMDL
MODEL 4
REMARK VINA RESULT:    -6.795      2.040      4.292
REMARK INTER + INTRA:         -12.445
REMARK INTER:                 -10.700
REMARK INTRA:                  -1.746
REMARK UNBOUND:                -2.274
REMARK  9 active torsions:
REMARK  status: ('A' for Active; 'I' for Inactive)
REMARK    1  A    between atoms: C_2  and  C_4 
REMARK    2  A    between atoms: C_4  and  C_5 
REMARK    3  A    between atoms: C_5  and  C_6 
REMARK    4  A    between atoms: C_6  and  O_7 
REMARK    5  A    between atoms: O_7  and  C_8 
REMARK    6  A    between atoms: C_9  and  O_10 
REMARK    7  A    between atoms: C_14  and  C_16 
REMARK    8  A    between atoms: C_20  and  N_22 
REMARK    9  A    between atoms: C_27  and  C_29 
REMARK       I    between atoms: C_29  and  N_31 
ROOT
HETATM    1  C   UNL     1       6.827  13.011  21.578  0.00  0.00     0.014 A 
HETATM    2  C   UNL     1       8.103  13.640  21.385  0.00  0.00     0.096 A 
HETATM    3  C   UNL     1       9.107  13.112  20.496  0.00  0.00     0.103 C 
HETATM    4  N   UNL     1       9.942  12.726  19.796  0.00  0.00    -0.191 NA
HETATM    5  C   UNL     1       8.405  14.843  22.019  0.00  0.00     0.123 A 
HETATM    6  N   UNL     1       7.528  15.533  22.740  0.00  0.00    -0.227 NA
HETATM    7  C   UNL     1       5.865  13.759  22.361  0.00  0.00     0.040 A 
HETATM    8  C   UNL     1       6.308  14.989  22.855  0.00  0.00     0.113 A 
HETATM    9  C   UNL     1       4.479  13.589  22.805  0.00  0.00     0.062 A 
HETATM   10  N   UNL     1       3.716  12.486  22.612  0.00  0.00    -0.397 N 
HETATM   11  C   UNL     1       3.948  14.701  23.444  0.00  0.00     0.101 A 
HETATM   12  S   UNL     1       5.135  15.896  23.671  0.00  0.00    -0.062 SA
HETATM   13  H   UNL     1       4.138  11.558  22.599  0.00  0.00     0.156 HD
HETATM   14  H   UNL     1       2.765  12.459  22.994  0.00  0.00     0.156 HD
ENDROOT
BRANCH   1  15
HETATM   15  C   UNL     1       6.517  11.672  20.981  0.00  0.00    -0.021 A 
HETATM   16  C   UNL     1       5.991  11.506  19.695  0.00  0.00     0.015 A 
HETATM   17  C   UNL     1       5.673  10.240  19.175  0.00  0.00     0.040 A 
HETATM   18  C   UNL     1       6.006   9.078  19.870  0.00  0.00     0.101 A 
HETATM   19  C   UNL     1       6.587   9.197  21.137  0.00  0.00     0.102 A 
HETATM   20  C   UNL     1       6.785  10.477  21.687  0.00  0.00     0.052 A 
BRANCH  18  21
HETATM   21  O   UNL     1       5.767   7.810  19.409  0.00  0.00    -0.353 OA
HETATM   22  C   UNL     1       4.407   7.418  19.309  0.00  0.00     0.210 C 
ENDBRANCH  18  21
BRANCH  19  23
HETATM   23  O   UNL     1       6.964   8.026  21.756  0.00  0.00    -0.348 OA
BRANCH  23  24
HETATM   24  C   UNL     1       7.402   8.155  23.112  0.00  0.00     0.176 C 
BRANCH  24  25
HETATM   25  C   UNL     1       8.868   7.748  23.219  0.00  0.00     0.037 C 
BRANCH  25  26
HETATM   26  C   UNL     1       9.687   8.754  24.023  0.00  0.00     0.115 C 
BRANCH  26  27
HETATM   27  C   UNL     1      10.267   9.838  23.113  0.00  0.00     0.172 C 
HETATM   28  O   UNL     1       9.805  10.999  23.306  0.00  0.00    -0.648 OA
HETATM   29  O   UNL     1      11.143   9.444  22.295  0.00  0.00    -0.648 OA
ENDBRANCH  26  27
ENDBRANCH  25  26
ENDBRANCH  24  25
ENDBRANCH  23  24
ENDBRANCH  19  23
ENDBRANCH   1  15
BRANCH   5  30
HETATM   30  N   UNL     1       9.643  15.478  21.886  0.00  0.00    -0.286 NA
HETATM   31  H   UNL     1       9.889  16.034  22.702  0.00  0.00     0.125 HD
HETATM   32  H   UNL     1       9.611  16.043  21.041  0.00  0.00     0.125 HD
ENDBRANCH   5  30
BRANCH  11  33
HETATM   33  C   UNL     1       2.592  14.910  23.927  0.00  0.00     0.258 C 
HETATM   34  O   UNL     1       1.602  15.005  23.198  0.00  0.00    -0.267 OA
HETATM   35  N   UNL     1       2.412  15.008  25.280  0.00  0.00    -0.365 N 
HETATM   36  H   UNL     1       3.184  14.913  25.925  0.00  0.00     0.159 HD
HETATM   37  H   UNL     1       1.475  15.146  25.629  0.00  0.00     0.159 HD
ENDBRANCH  11  33
TORSDOF 9
ENDMDL
MODEL 5
REMARK VINA RESULT:    -6.732      1.810      4.392
REMARK INTER + INTRA:         -12.350
REMARK INTER:                 -10.955
REMARK INTRA:                  -1.395
REMARK UNBOUND:                -2.274
REMARK  9 active torsions:
REMARK  status: ('A' for Active; 'I' for Inactive)
REMARK    1  A    between atoms: C_2  and  C_4 
REMARK    2  A    between atoms: C_4  and  C_5 
REMARK    3  A    between atoms: C_5  and  C_6 
REMARK    4  A    between atoms: C_6  and  O_7 
REMARK    5  A    between atoms: O_7  and  C_8 
REMARK    6  A    between atoms: C_9  and  O_10 
REMARK    7  A    between atoms: C_14  and  C_16 
REMARK    8  A    between atoms: C_20  and  N_22 
REMARK    9  A    between atoms: C_27  and  C_29 
REMARK       I    between atoms: C_29  and  N_31 
ROOT
HETATM    1  C   UNL     1       6.421  12.583  21.814  0.00  0.00     0.014 A 
HETATM    2  C   UNL     1       5.282  13.320  22.285  0.00  0.00     0.096 A 
HETATM    3  C   UNL     1       3.940  12.798  22.239  0.00  0.00     0.103 C 
HETATM    4  N   UNL     1       2.847  12.421  22.222  0.00  0.00    -0.191 NA
HETATM    5  C   UNL     1       5.441  14.575  22.870  0.00  0.00     0.123 A 
HETATM    6  N   UNL     1       6.625  15.120  23.128  0.00  0.00    -0.227 NA
HETATM    7  C   UNL     1       7.715  13.170  22.094  0.00  0.00     0.040 A 
HETATM    8  C   UNL     1       7.694  14.396  22.765  0.00  0.00     0.113 A 
HETATM    9  C   UNL     1       9.120  12.825  21.870  0.00  0.00     0.062 A 
HETATM   10  N   UNL     1       9.570  11.754  21.170  0.00  0.00    -0.397 N 
HETATM   11  C   UNL     1      10.021  13.690  22.476  0.00  0.00     0.101 A 
HETATM   12  S   UNL     1       9.216  15.010  23.181  0.00  0.00    -0.062 SA
HETATM   13  H   UNL     1       9.047  11.399  20.371  0.00  0.00     0.156 HD
HETATM   14  H   UNL     1      10.579  11.624  21.045  0.00  0.00     0.156 HD
ENDROOT
BRANCH   1  15
HETATM   15  C   UNL     1       6.264  11.276  21.098  0.00  0.00    -0.021 A 
HETATM   16  C   UNL     1       6.175  10.044  21.756  0.00  0.00     0.015 A 
HETATM   17  C   UNL     1       6.067   8.830  21.058  0.00  0.00     0.040 A 
HETATM   18  C   UNL     1       5.899   8.814  19.674  0.00  0.00     0.101 A 
HETATM   19  C   UNL     1       5.924  10.029  18.981  0.00  0.00     0.102 A 
HETATM   20  C   UNL     1       6.153  11.222  19.691  0.00  0.00     0.052 A 
BRANCH  18  21
HETATM   21  O   UNL     1       5.745   7.674  18.930  0.00  0.00    -0.353 OA
HETATM   22  C   UNL     1       4.923   6.660  19.487  0.00  0.00     0.210 C 
ENDBRANCH  18  21
BRANCH  19  23
HETATM   23  O   UNL     1       5.683   9.972  17.626  0.00  0.00    -0.348 OA
BRANCH  23  24
HETATM   24  C   UNL     1       4.323  10.180  17.229  0.00  0.00     0.176 C 
BRANCH  24  25
HETATM   25  C   UNL     1       3.924   9.129  16.199  0.00  0.00     0.037 C 
BRANCH  25  26
HETATM   26  C   UNL     1       2.869   8.167  16.740  0.00  0.00     0.115 C 
BRANCH  26  27
HETATM   27  C   UNL     1       2.754   6.927  15.851  0.00  0.00     0.172 C 
HETATM   28  O   UNL     1       1.578   6.648  15.478  0.00  0.00    -0.648 OA
HETATM   29  O   UNL     1       3.843   6.348  15.588  0.00  0.00    -0.648 OA
ENDBRANCH  26  27
ENDBRANCH  25  26
ENDBRANCH  24  25
ENDBRANCH  23  24
ENDBRANCH  19  23
ENDBRANCH   1  15
BRANCH   5  30
HETATM   30  N   UNL     1       4.362  15.344  23.316  0.00  0.00    -0.286 NA
HETATM   31  H   UNL     1       4.296  16.241  22.841  0.00  0.00     0.125 HD
HETATM   32  H   UNL     1       4.458  15.456  24.322  0.00  0.00     0.125 HD
ENDBRANCH   5  30
BRANCH  11  33
HETATM   33  C   UNL     1      11.472  13.597  22.534  0.00  0.00     0.258 C 
HETATM   34  O   UNL     1      12.183  13.242  21.592  0.00  0.00    -0.267 OA
HETATM   35  N   UNL     1      12.078  13.923  23.717  0.00  0.00    -0.365 N 
HETATM   36  H   UNL     1      11.546  14.243  24.514  0.00  0.00     0.159 HD
HETATM   37  H   UNL     1      13.085  13.869  23.769  0.00  0.00     0.159 HD
ENDBRANCH  11  33
TORSDOF 9
ENDMDL
MODEL 6
REMARK VINA RESULT:    -6.452      3.149      6.582
REMARK INTER + INTRA:         -11.931
REMARK INTER:                  -9.975
REMARK INTRA:                  -1.957
REMARK UNBOUND:                -2.274
REMARK  9 active torsions:
REMARK  status: ('A' for Active; 'I' for Inactive)
REMARK    1  A    between atoms: C_2  and  C_4 
REMARK    2  A    between atoms: C_4  and  C_5 
REMARK    3  A    between atoms: C_5  and  C_6 
REMARK    4  A    between atoms: C_6  and  O_7 
REMARK    5  A    between atoms: O_7  and  C_8 
REMARK    6  A    between atoms: C_9  and  O_10 
REMARK    7  A    between atoms: C_14  and  C_16 
REMARK    8  A    between atoms: C_20  and  N_22 
REMARK    9  A    between atoms: C_27  and  C_29 
REMARK       I    between atoms: C_29  and  N_31 
ROOT
HETATM    1  C   UNL     1       6.094  13.279  21.991  0.00  0.00     0.014 A 
HETATM    2  C   UNL     1       6.229  12.360  20.896  0.00  0.00     0.096 A 
HETATM    3  C   UNL     1       7.508  11.943  20.380  0.00  0.00     0.103 C 
HETATM    4  N   UNL     1       8.511  11.580  19.933  0.00  0.00    -0.191 NA
HETATM    5  C   UNL     1       5.104  11.780  20.313  0.00  0.00     0.123 A 
HETATM    6  N   UNL     1       3.871  11.941  20.778  0.00  0.00    -0.227 NA
HETATM    7  C   UNL     1       4.753  13.457  22.506  0.00  0.00     0.040 A 
HETATM    8  C   UNL     1       3.750  12.733  21.854  0.00  0.00     0.113 A 
HETATM    9  C   UNL     1       4.107  14.217  23.579  0.00  0.00     0.062 A 
HETATM   10  N   UNL     1       4.719  15.116  24.390  0.00  0.00    -0.397 N 
HETATM   11  C   UNL     1       2.761  13.925  23.752  0.00  0.00     0.101 A 
HETATM   12  S   UNL     1       2.208  12.869  22.540  0.00  0.00    -0.062 SA
HETATM   13  H   UNL     1       5.489  15.686  24.045  0.00  0.00     0.156 HD
HETATM   14  H   UNL     1       4.164  15.619  25.090  0.00  0.00     0.156 HD
ENDROOT
BRANCH   1  15
HETATM   15  C   UNL     1       7.283  13.985  22.570  0.00  0.00    -0.021 A 
HETATM   16  C   UNL     1       7.831  15.148  22.018  0.00  0.00     0.015 A 
HETATM   17  C   UNL     1       8.970  15.768  22.560  0.00  0.00     0.040 A 
HETATM   18  C   UNL     1       9.519  15.326  23.763  0.00  0.00     0.101 A 
HETATM   19  C   UNL     1       8.966  14.200  24.380  0.00  0.00     0.102 A 
HETATM   20  C   UNL     1       7.900  13.525  23.755  0.00  0.00     0.052 A 
BRANCH  18  21
HETATM   21  O   UNL     1      10.601  15.904  24.374  0.00  0.00    -0.353 OA
HETATM   22  C   UNL     1      11.880  15.515  23.899  0.00  0.00     0.210 C 
ENDBRANCH  18  21
BRANCH  19  23
HETATM   23  O   UNL     1       9.493  13.842  25.602  0.00  0.00    -0.348 OA
BRANCH  23  24
HETATM   24  C   UNL     1       9.778  12.449  25.770  0.00  0.00     0.176 C 
BRANCH  24  25
HETATM   25  C   UNL     1      10.932  12.049  24.857  0.00  0.00     0.037 C 
BRANCH  25  26
HETATM   26  C   UNL     1      10.544  10.926  23.899  0.00  0.00     0.115 C 
BRANCH  26  27
HETATM   27  C   UNL     1      10.989  11.248  22.471  0.00  0.00     0.172 C 
HETATM   28  O   UNL     1      11.002  12.480  22.183  0.00  0.00    -0.648 OA
HETATM   29  O   UNL     1      11.302  10.251  21.765  0.00  0.00    -0.648 OA
ENDBRANCH  26  27
ENDBRANCH  25  26
ENDBRANCH  24  25
ENDBRANCH  23  24
ENDBRANCH  19  23
ENDBRANCH   1  15
BRANCH   5  30
HETATM   30  N   UNL     1       5.182  10.905  19.226  0.00  0.00    -0.286 NA
HETATM   31  H   UNL     1       5.697  10.055  19.442  0.00  0.00     0.125 HD
HETATM   32  H   UNL     1       5.600  11.412  18.450  0.00  0.00     0.125 HD
ENDBRANCH   5  30
BRANCH  11  33
HETATM   33  C   UNL     1       1.848  14.421  24.769  0.00  0.00     0.258 C 
HETATM   34  O   UNL     1       2.194  14.792  25.893  0.00  0.00    -0.267 OA
HETATM   35  N   UNL     1       0.518  14.472  24.451  0.00  0.00    -0.365 N 
HETATM   36  H   UNL     1       0.181  14.204  23.537  0.00  0.00     0.159 HD
HETATM   37  H   UNL     1      -0.127  14.821  25.145  0.00  0.00     0.159 HD
ENDBRANCH  11  33
TORSDOF 9
ENDMDL
MODEL 7
REMARK VINA RESULT:    -6.431      2.407      4.623
REMARK INTER + INTRA:         -11.900
REMARK INTER:                  -9.727
REMARK INTRA:                  -2.173
REMARK UNBOUND:                -2.274
REMARK  9 active torsions:
REMARK  status: ('A' for Active; 'I' for Inactive)
REMARK    1  A    between atoms: C_2  and  C_4 
REMARK    2  A    between atoms: C_4  and  C_5 
REMARK    3  A    between atoms: C_5  and  C_6 
REMARK    4  A    between atoms: C_6  and  O_7 
REMARK    5  A    between atoms: O_7  and  C_8 
REMARK    6  A    between atoms: C_9  and  O_10 
REMARK    7  A    between atoms: C_14  and  C_16 
REMARK    8  A    between atoms: C_20  and  N_22 
REMARK    9  A    between atoms: C_27  and  C_29 
REMARK       I    between atoms: C_29  and  N_31 
ROOT
HETATM    1  C   UNL     1       6.758  12.995  21.575  0.00  0.00     0.014 A 
HETATM    2  C   UNL     1       8.047  13.612  21.442  0.00  0.00     0.096 A 
HETATM    3  C   UNL     1       9.067  13.108  20.557  0.00  0.00     0.103 C 
HETATM    4  N   UNL     1       9.913  12.741  19.861  0.00  0.00    -0.191 NA
HETATM    5  C   UNL     1       8.350  14.781  22.137  0.00  0.00     0.123 A 
HETATM    6  N   UNL     1       7.464  15.452  22.866  0.00  0.00    -0.227 NA
HETATM    7  C   UNL     1       5.786  13.722  22.365  0.00  0.00     0.040 A 
HETATM    8  C   UNL     1       6.234  14.922  22.925  0.00  0.00     0.113 A 
HETATM    9  C   UNL     1       4.387  13.554  22.766  0.00  0.00     0.062 A 
HETATM   10  N   UNL     1       3.614  12.472  22.504  0.00  0.00    -0.397 N 
HETATM   11  C   UNL     1       3.856  14.645  23.441  0.00  0.00     0.101 A 
HETATM   12  S   UNL     1       5.053  15.810  23.751  0.00  0.00    -0.062 SA
HETATM   13  H   UNL     1       4.023  11.540  22.460  0.00  0.00     0.156 HD
HETATM   14  H   UNL     1       2.653  12.443  22.860  0.00  0.00     0.156 HD
ENDROOT
BRANCH   1  15
HETATM   15  C   UNL     1       6.444  11.688  20.910  0.00  0.00    -0.021 A 
HETATM   16  C   UNL     1       5.971  11.587  19.597  0.00  0.00     0.015 A 
HETATM   17  C   UNL     1       5.649  10.351  19.012  0.00  0.00     0.040 A 
HETATM   18  C   UNL     1       5.924   9.154  19.673  0.00  0.00     0.101 A 
HETATM   19  C   UNL     1       6.452   9.208  20.967  0.00  0.00     0.102 A 
HETATM   20  C   UNL     1       6.654  10.461  21.577  0.00  0.00     0.052 A 
BRANCH  18  21
HETATM   21  O   UNL     1       5.677   7.912  19.151  0.00  0.00    -0.353 OA
HETATM   22  C   UNL     1       4.405   7.716  18.554  0.00  0.00     0.210 C 
ENDBRANCH  18  21
BRANCH  19  23
HETATM   23  O   UNL     1       6.775   8.004  21.553  0.00  0.00    -0.348 OA
BRANCH  23  24
HETATM   24  C   UNL     1       6.814   8.003  22.984  0.00  0.00     0.176 C 
BRANCH  24  25
HETATM   25  C   UNL     1       5.477   7.517  23.533  0.00  0.00     0.037 C 
BRANCH  25  26
HETATM   26  C   UNL     1       5.030   8.320  24.752  0.00  0.00     0.115 C 
BRANCH  26  27
HETATM   27  C   UNL     1       4.457   9.675  24.333  0.00  0.00     0.172 C 
HETATM   28  O   UNL     1       3.404   9.613  23.635  0.00  0.00    -0.648 OA
HETATM   29  O   UNL     1       5.093  10.682  24.746  0.00  0.00    -0.648 OA
ENDBRANCH  26  27
ENDBRANCH  25  26
ENDBRANCH  24  25
ENDBRANCH  23  24
ENDBRANCH  19  23
ENDBRANCH   1  15
BRANCH   5  30
HETATM   30  N   UNL     1       9.600  15.402  22.064  0.00  0.00    -0.286 NA
HETATM   31  H   UNL     1       9.996  15.381  21.128  0.00  0.00     0.125 HD
HETATM   32  H   UNL     1      10.209  14.950  22.742  0.00  0.00     0.125 HD
ENDBRANCH   5  30
BRANCH  11  33
HETATM   33  C   UNL     1       2.490  14.852  23.898  0.00  0.00     0.258 C 
HETATM   34  O   UNL     1       1.526  15.026  23.149  0.00  0.00    -0.267 OA
HETATM   35  N   UNL     1       2.271  14.857  25.248  0.00  0.00    -0.365 N 
HETATM   36  H   UNL     1       3.020  14.695  25.907  0.00  0.00     0.159 HD
HETATM   37  H   UNL     1       1.327  14.993  25.579  0.00  0.00     0.159 HD
ENDBRANCH  11  33
TORSDOF 9
ENDMDL
MODEL 8
REMARK VINA RESULT:    -6.426      3.253      6.106
REMARK INTER + INTRA:         -11.893
REMARK INTER:                  -9.620
REMARK INTRA:                  -2.274
REMARK UNBOUND:                -2.274
REMARK  9 active torsions:
REMARK  status: ('A' for Active; 'I' for Inactive)
REMARK    1  A    between atoms: C_2  and  C_4 
REMARK    2  A    between atoms: C_4  and  C_5 
REMARK    3  A    between atoms: C_5  and  C_6 
REMARK    4  A    between atoms: C_6  and  O_7 
REMARK    5  A    between atoms: O_7  and  C_8 
REMARK    6  A    between atoms: C_9  and  O_10 
REMARK    7  A    between atoms: C_14  and  C_16 
REMARK    8  A    between atoms: C_20  and  N_22 
REMARK    9  A    between atoms: C_27  and  C_29 
REMARK       I    between atoms: C_29  and  N_31 
ROOT
HETATM    1  C   UNL     1       5.788  10.317  20.737  0.00  0.00     0.014 A 
HETATM    2  C   UNL     1       5.204  10.017  19.460  0.00  0.00     0.096 A 
HETATM    3  C   UNL     1       4.645  11.030  18.600  0.00  0.00     0.103 C 
HETATM    4  N   UNL     1       4.187  11.807  17.877  0.00  0.00    -0.191 NA
HETATM    5  C   UNL     1       5.204   8.714  18.967  0.00  0.00     0.123 A 
HETATM    6  N   UNL     1       5.821   7.702  19.567  0.00  0.00    -0.227 NA
HETATM    7  C   UNL     1       6.464   9.219  21.397  0.00  0.00     0.040 A 
HETATM    8  C   UNL     1       6.439   7.996  20.720  0.00  0.00     0.113 A 
HETATM    9  C   UNL     1       7.214   9.011  22.637  0.00  0.00     0.062 A 
HETATM   10  N   UNL     1       7.389   9.930  23.619  0.00  0.00    -0.397 N 
HETATM   11  C   UNL     1       7.798   7.756  22.744  0.00  0.00     0.101 A 
HETATM   12  S   UNL     1       7.329   6.755  21.454  0.00  0.00    -0.062 SA
HETATM   13  H   UNL     1       6.665  10.617  23.822  0.00  0.00     0.156 HD
HETATM   14  H   UNL     1       7.906   9.669  24.465  0.00  0.00     0.156 HD
ENDROOT
BRANCH   1  15
HETATM   15  C   UNL     1       5.714  11.693  21.327  0.00  0.00    -0.021 A 
HETATM   16  C   UNL     1       4.591  12.180  22.004  0.00  0.00     0.015 A 
HETATM   17  C   UNL     1       4.535  13.488  22.514  0.00  0.00     0.040 A 
HETATM   18  C   UNL     1       5.660  14.312  22.491  0.00  0.00     0.101 A 
HETATM   19  C   UNL     1       6.824  13.843  21.874  0.00  0.00     0.102 A 
HETATM   20  C   UNL     1       6.817  12.574  21.265  0.00  0.00     0.052 A 
BRANCH  18  21
HETATM   21  O   UNL     1       5.695  15.582  23.005  0.00  0.00    -0.353 OA
HETATM   22  C   UNL     1       4.627  15.946  23.866  0.00  0.00     0.210 C 
ENDBRANCH  18  21
BRANCH  19  23
HETATM   23  O   UNL     1       7.930  14.661  21.937  0.00  0.00    -0.348 OA
BRANCH  23  24
HETATM   24  C   UNL     1       9.104  14.167  21.285  0.00  0.00     0.176 C 
BRANCH  24  25
HETATM   25  C   UNL     1      10.307  14.322  22.209  0.00  0.00     0.037 C 
BRANCH  25  26
HETATM   26  C   UNL     1      11.071  13.012  22.383  0.00  0.00     0.115 C 
BRANCH  26  27
HETATM   27  C   UNL     1      10.155  11.915  22.930  0.00  0.00     0.172 C 
HETATM   28  O   UNL     1       9.588  12.194  24.026  0.00  0.00    -0.648 OA
HETATM   29  O   UNL     1      10.066  10.879  22.217  0.00  0.00    -0.648 OA
ENDBRANCH  26  27
ENDBRANCH  25  26
ENDBRANCH  24  25
ENDBRANCH  23  24
ENDBRANCH  19  23
ENDBRANCH   1  15
BRANCH   5  30
HETATM   30  N   UNL     1       4.622   8.368  17.744  0.00  0.00    -0.286 NA
HETATM   31  H   UNL     1       5.297   8.009  17.074  0.00  0.00     0.125 HD
HETATM   32  H   UNL     1       4.138   9.189  17.389  0.00  0.00     0.125 HD
ENDBRANCH   5  30
BRANCH  11  33
HETATM   33  C   UNL     1       8.675   7.249  23.788  0.00  0.00     0.258 C 
HETATM   34  O   UNL     1       9.507   7.933  24.390  0.00  0.00    -0.267 OA
HETATM   35  N   UNL     1       8.567   5.925  24.114  0.00  0.00    -0.365 N 
HETATM   36  H   UNL     1       7.887   5.324  23.670  0.00  0.00     0.159 HD
HETATM   37  H   UNL     1       9.166   5.561  24.841  0.00  0.00     0.159 HD
ENDBRANCH  11  33
TORSDOF 9
ENDMDL
MODEL 9
REMARK VINA RESULT:    -6.328      3.668      5.988
REMARK INTER + INTRA:         -11.746
REMARK INTER:                 -10.275
REMARK INTRA:                  -1.471
REMARK UNBOUND:                -2.274
REMARK  9 active torsions:
REMARK  status: ('A' for Active; 'I' for Inactive)
REMARK    1  A    between atoms: C_2  and  C_4 
REMARK    2  A    between atoms: C_4  and  C_5 
REMARK    3  A    between atoms: C_5  and  C_6 
REMARK    4  A    between atoms: C_6  and  O_7 
REMARK    5  A    between atoms: O_7  and  C_8 
REMARK    6  A    between atoms: C_9  and  O_10 
REMARK    7  A    between atoms: C_14  and  C_16 
REMARK    8  A    between atoms: C_20  and  N_22 
REMARK    9  A    between atoms: C_27  and  C_29 
REMARK       I    between atoms: C_29  and  N_31 
ROOT
HETATM    1  C   UNL     1       7.910  12.324  22.688  0.00  0.00     0.014 A 
HETATM    2  C   UNL     1       8.241  12.257  21.293  0.00  0.00     0.096 A 
HETATM    3  C   UNL     1       7.358  11.688  20.307  0.00  0.00     0.103 C 
HETATM    4  N   UNL     1       6.682  11.243  19.481  0.00  0.00    -0.191 NA
HETATM    5  C   UNL     1       9.433  12.802  20.819  0.00  0.00     0.123 A 
HETATM    6  N   UNL     1      10.274  13.497  21.576  0.00  0.00    -0.227 NA
HETATM    7  C   UNL     1       8.821  13.083  23.520  0.00  0.00     0.040 A 
HETATM    8  C   UNL     1       9.926  13.633  22.864  0.00  0.00     0.113 A 
HETATM    9  C   UNL     1       8.920  13.466  24.930  0.00  0.00     0.062 A 
HETATM   10  N   UNL     1       8.091  13.058  25.921  0.00  0.00    -0.397 N 
HETATM   11  C   UNL     1       9.954  14.351  25.206  0.00  0.00     0.101 A 
HETATM   12  S   UNL     1      10.918  14.608  23.831  0.00  0.00    -0.062 SA
HETATM   13  H   UNL     1       7.668  12.131  25.895  0.00  0.00     0.156 HD
HETATM   14  H   UNL     1       8.270  13.361  26.884  0.00  0.00     0.156 HD
ENDROOT
BRANCH   1  15
HETATM   15  C   UNL     1       6.680  11.662  23.232  0.00  0.00    -0.021 A 
HETATM   16  C   UNL     1       6.632  10.314  23.605  0.00  0.00     0.015 A 
HETATM   17  C   UNL     1       5.454   9.710  24.076  0.00  0.00     0.040 A 
HETATM   18  C   UNL     1       4.313  10.471  24.329  0.00  0.00     0.101 A 
HETATM   19  C   UNL     1       4.336  11.836  24.025  0.00  0.00     0.102 A 
HETATM   20  C   UNL     1       5.489  12.393  23.442  0.00  0.00     0.052 A 
BRANCH  18  21
HETATM   21  O   UNL     1       3.143   9.962  24.827  0.00  0.00    -0.353 OA
HETATM   22  C   UNL     1       2.954   8.561  24.694  0.00  0.00     0.210 C 
ENDBRANCH  18  21
BRANCH  19  23
HETATM   23  O   UNL     1       3.213  12.562  24.357  0.00  0.00    -0.348 OA
BRANCH  23  24
HETATM   24  C   UNL     1       3.280  13.966  24.087  0.00  0.00     0.176 C 
BRANCH  24  25
HETATM   25  C   UNL     1       1.871  14.544  24.029  0.00  0.00     0.037 C 
BRANCH  25  26
HETATM   26  C   UNL     1       1.407  14.784  22.594  0.00  0.00     0.115 C 
BRANCH  26  27
HETATM   27  C   UNL     1       0.888  13.490  21.965  0.00  0.00     0.172 C 
HETATM   28  O   UNL     1      -0.182  13.044  22.473  0.00  0.00    -0.648 OA
HETATM   29  O   UNL     1       1.578  13.038  21.012  0.00  0.00    -0.648 OA
ENDBRANCH  26  27
ENDBRANCH  25  26
ENDBRANCH  24  25
ENDBRANCH  23  24
ENDBRANCH  19  23
ENDBRANCH   1  15
BRANCH   5  30
HETATM   30  N   UNL     1       9.814  12.735  19.476  0.00  0.00    -0.286 NA
HETATM   31  H   UNL     1       9.906  13.652  19.047  0.00  0.00     0.125 HD
HETATM   32  H   UNL     1       9.132  12.158  18.990  0.00  0.00     0.125 HD
ENDBRANCH   5  30
BRANCH  11  33
HETATM   33  C   UNL     1      10.282  15.000  26.466  0.00  0.00     0.258 C 
HETATM   34  O   UNL     1       9.533  15.776  27.064  0.00  0.00    -0.267 OA
HETATM   35  N   UNL     1      11.505  14.727  27.016  0.00  0.00    -0.365 N 
HETATM   36  H   UNL     1      12.148  14.080  26.583  0.00  0.00     0.159 HD
HETATM   37  H   UNL     1      11.742  15.166  27.894  0.00  0.00     0.159 HD
ENDBRANCH  11  33
TORSDOF 9
ENDMDL
