MODEL 1
REMARK VINA RESULT:    -8.947      0.000      0.000
REMARK INTER + INTRA:         -12.244
REMARK INTER:                 -11.011
REMARK INTRA:                  -1.233
REMARK UNBOUND:                -0.944
REMARK  5 active torsions:
REMARK  status: ('A' for Active; 'I' for Inactive)
REMARK    1  A    between atoms: C_7  and  N_8 
REMARK       I    between atoms: N_8  and  C_10 
REMARK    2  A    between atoms: C_10  and  C_12 
REMARK    3  A    between atoms: C_14  and  O_15 
REMARK    4  A    between atoms: C_22  and  C_23 
REMARK    5  A    between atoms: C_23  and  C_24 
ROOT
HETATM    1  C   UNL     1       7.316  11.860  21.539  0.00  0.00     0.066 A 
HETATM    2  C   UNL     1       6.716  13.097  21.915  0.00  0.00     0.035 A 
HETATM    3  C   UNL     1       8.374  11.384  22.325  0.00  0.00     0.083 A 
HETATM    4  C   UNL     1       8.787  12.031  23.498  0.00  0.00     0.069 A 
HETATM    5  C   UNL     1       8.163  13.234  23.830  0.00  0.00     0.065 A 
HETATM    6  C   UNL     1       7.133  13.785  23.081  0.00  0.00     0.020 A 
HETATM    7  N   UNL     1       8.395  14.119  24.845  0.00  0.00    -0.277 N 
HETATM    8  H   UNL     1       9.103  14.059  25.568  0.00  0.00     0.189 HD
HETATM    9  N   UNL     1       7.599  15.195  24.831  0.00  0.00    -0.178 NA
HETATM   10  C   UNL     1       6.790  14.990  23.777  0.00  0.00     0.071 A 
ENDROOT
BRANCH   1  11
HETATM   11  C   UNL     1       6.819  11.268  20.243  0.00  0.00     0.260 C 
HETATM   12  N   UNL     1       5.684  10.415  20.146  0.00  0.00    -0.318 N 
HETATM   13  C   UNL     1       5.027   9.845  21.323  0.00  0.00     0.159 C 
HETATM   14  O   UNL     1       7.491  11.609  19.264  0.00  0.00    -0.267 OA
BRANCH  12  15
HETATM   15  C   UNL     1       5.107  10.054  18.851  0.00  0.00     0.038 A 
HETATM   16  C   UNL     1       5.088   8.723  18.399  0.00  0.00     0.053 A 
HETATM   17  C   UNL     1       4.459   8.368  17.194  0.00  0.00     0.036 A 
HETATM   18 CL   UNL     1       4.423   6.715  16.696  0.00  0.00    -0.084 Cl
HETATM   19  C   UNL     1       3.845   9.325  16.397  0.00  0.00     0.024 A 
HETATM   20  C   UNL     1       3.860  10.647  16.816  0.00  0.00     0.004 A 
HETATM   21  C   UNL     1       4.478  11.003  18.028  0.00  0.00     0.030 A 
ENDBRANCH  12  15
ENDBRANCH   1  11
BRANCH   3  22
HETATM   22  O   UNL     1       9.145  10.300  22.005  0.00  0.00    -0.360 OA
HETATM   23  H   UNL     1       8.797   9.544  22.499  0.00  0.00     0.217 HD
ENDBRANCH   3  22
BRANCH  10  24
HETATM   24  C   UNL     1       5.765  16.022  23.442  0.00  0.00     0.100 C 
BRANCH  24  25
HETATM   25  C   UNL     1       4.401  15.474  23.809  0.00  0.00    -0.052 A 
HETATM   26  C   UNL     1       3.912  15.636  25.114  0.00  0.00     0.007 A 
HETATM   27  C   UNL     1       2.733  15.004  25.511  0.00  0.00     0.001 A 
HETATM   28  C   UNL     1       2.011  14.228  24.607  0.00  0.00     0.007 A 
HETATM   29  C   UNL     1       2.445  14.097  23.283  0.00  0.00    -0.061 A 
HETATM   30  C   UNL     1       3.640  14.724  22.892  0.00  0.00     0.014 A 
HETATM   31  C   UNL     1       1.615  13.339  22.290  0.00  0.00     0.048 C 
ENDBRANCH  24  25
ENDBRANCH  10  24
TORSDOF 5
ENDMDL
MODEL 2
REMARK VINA RESULT:    -8.916      3.392      5.558
REMARK INTER + INTRA:         -12.205
REMARK INTER:                 -11.191
REMARK INTRA:                  -1.015
REMARK UNBOUND:                -0.944
REMARK  5 active torsions:
REMARK  status: ('A' for Active; 'I' for Inactive)
REMARK    1  A    between atoms: C_7  and  N_8 
REMARK       I    between atoms: N_8  and  C_10 
REMARK    2  A    between atoms: C_10  and  C_12 
REMARK    3  A    between atoms: C_14  and  O_15 
REMARK    4  A    between atoms: C_22  and  C_23 
REMARK    5  A    between atoms: C_23  and  C_24 
ROOT
HETATM    1  C   UNL     1       5.030  12.029  21.399  0.00  0.00     0.066 A 
HETATM    2  C   UNL     1       5.955  13.098  21.577  0.00  0.00     0.035 A 
HETATM    3  C   UNL     1       5.489  10.869  20.762  0.00  0.00     0.083 A 
HETATM    4  C   UNL     1       6.830  10.700  20.386  0.00  0.00     0.069 A 
HETATM    5  C   UNL     1       7.700  11.772  20.589  0.00  0.00     0.065 A 
HETATM    6  C   UNL     1       7.309  12.965  21.181  0.00  0.00     0.020 A 
HETATM    7  N   UNL     1       9.017  11.937  20.261  0.00  0.00    -0.277 N 
HETATM    8  H   UNL     1       9.622  11.281  19.781  0.00  0.00     0.189 HD
HETATM    9  N   UNL     1       9.523  13.129  20.598  0.00  0.00    -0.178 NA
HETATM   10  C   UNL     1       8.500  13.761  21.200  0.00  0.00     0.071 A 
ENDROOT
BRANCH   1  11
HETATM   11  C   UNL     1       3.609  12.330  21.808  0.00  0.00     0.260 C 
HETATM   12  N   UNL     1       3.179  12.435  23.160  0.00  0.00    -0.318 N 
HETATM   13  C   UNL     1       4.024  12.033  24.286  0.00  0.00     0.159 C 
HETATM   14  O   UNL     1       2.851  12.493  20.845  0.00  0.00    -0.267 OA
BRANCH  12  15
HETATM   15  C   UNL     1       1.854  12.950  23.504  0.00  0.00     0.038 A 
HETATM   16  C   UNL     1       0.711  12.132  23.461  0.00  0.00     0.053 A 
HETATM   17  C   UNL     1      -0.546  12.608  23.872  0.00  0.00     0.036 A 
HETATM   18 CL   UNL     1      -1.916  11.557  23.842  0.00  0.00    -0.084 Cl
HETATM   19  C   UNL     1      -0.706  13.912  24.323  0.00  0.00     0.024 A 
HETATM   20  C   UNL     1       0.404  14.741  24.363  0.00  0.00     0.004 A 
HETATM   21  C   UNL     1       1.666  14.264  23.965  0.00  0.00     0.030 A 
ENDBRANCH  12  15
ENDBRANCH   1  11
BRANCH   3  22
HETATM   22  O   UNL     1       4.687   9.827  20.384  0.00  0.00    -0.360 OA
HETATM   23  H   UNL     1       3.943  10.202  19.890  0.00  0.00     0.217 HD
ENDBRANCH   3  22
BRANCH  10  24
HETATM   24  C   UNL     1       8.704  15.154  21.697  0.00  0.00     0.100 C 
BRANCH  24  25
HETATM   25  C   UNL     1       7.967  15.302  23.012  0.00  0.00    -0.052 A 
HETATM   26  C   UNL     1       8.582  14.901  24.207  0.00  0.00     0.007 A 
HETATM   27  C   UNL     1       7.863  14.883  25.403  0.00  0.00     0.001 A 
HETATM   28  C   UNL     1       6.531  15.291  25.429  0.00  0.00     0.007 A 
HETATM   29  C   UNL     1       5.909  15.750  24.263  0.00  0.00    -0.061 A 
HETATM   30  C   UNL     1       6.634  15.754  23.060  0.00  0.00     0.014 A 
HETATM   31  C   UNL     1       4.505  16.277  24.316  0.00  0.00     0.048 C 
ENDBRANCH  24  25
ENDBRANCH  10  24
TORSDOF 5
ENDMDL
MODEL 3
REMARK VINA RESULT:    -8.672      1.834      2.402
REMARK INTER + INTRA:         -11.897
REMARK INTER:                 -10.956
REMARK INTRA:                  -0.941
REMARK UNBOUND:                -0.944
REMARK  5 active torsions:
REMARK  status: ('A' for Active; 'I' for Inactive)
REMARK    1  A    between atoms: C_7  and  N_8 
REMARK       I    between atoms: N_8  and  C_10 
REMARK    2  A    between atoms: C_10  and  C_12 
REMARK    3  A    between atoms: C_14  and  O_15 
REMARK    4  A    between atoms: C_22  and  C_23 
REMARK    5  A    between atoms: C_23  and  C_24 
ROOT
HETATM    1  C   UNL     1       8.709  12.236  21.309  0.00  0.00     0.066 A 
HETATM    2  C   UNL     1       8.004  12.528  22.513  0.00  0.00     0.035 A 
HETATM    3  C   UNL     1      10.069  12.569  21.254  0.00  0.00     0.083 A 
HETATM    4  C   UNL     1      10.761  13.083  22.360  0.00  0.00     0.069 A 
HETATM    5  C   UNL     1      10.029  13.343  23.519  0.00  0.00     0.065 A 
HETATM    6  C   UNL     1       8.673  13.074  23.637  0.00  0.00     0.020 A 
HETATM    7  N   UNL     1      10.398  13.907  24.709  0.00  0.00    -0.277 N 
HETATM    8  H   UNL     1      11.311  14.261  24.969  0.00  0.00     0.189 HD
HETATM    9  N   UNL     1       9.403  14.019  25.597  0.00  0.00    -0.178 NA
HETATM   10  C   UNL     1       8.343  13.477  24.971  0.00  0.00     0.071 A 
ENDROOT
BRANCH   1  11
HETATM   11  C   UNL     1       7.862  11.717  20.174  0.00  0.00     0.260 C 
HETATM   12  N   UNL     1       6.788  10.799  20.342  0.00  0.00    -0.318 N 
HETATM   13  C   UNL     1       6.550  10.091  21.602  0.00  0.00     0.159 C 
HETATM   14  O   UNL     1       8.184  12.182  19.075  0.00  0.00    -0.267 OA
BRANCH  12  15
HETATM   15  C   UNL     1       5.856  10.503  19.254  0.00  0.00     0.038 A 
HETATM   16  C   UNL     1       4.878  11.430  18.850  0.00  0.00     0.053 A 
HETATM   17  C   UNL     1       4.040  11.177  17.751  0.00  0.00     0.036 A 
HETATM   18 CL   UNL     1       2.880  12.360  17.262  0.00  0.00    -0.084 Cl
HETATM   19  C   UNL     1       4.139   9.993  17.031  0.00  0.00     0.024 A 
HETATM   20  C   UNL     1       5.088   9.059  17.418  0.00  0.00     0.004 A 
HETATM   21  C   UNL     1       5.937   9.315  18.510  0.00  0.00     0.030 A 
ENDBRANCH  12  15
ENDBRANCH   1  11
BRANCH   3  22
HETATM   22  O   UNL     1      10.836  12.493  20.123  0.00  0.00    -0.360 OA
HETATM   23  H   UNL     1      10.581  11.683  19.658  0.00  0.00     0.217 HD
ENDBRANCH   3  22
BRANCH  10  24
HETATM   24  C   UNL     1       7.026  13.449  25.674  0.00  0.00     0.100 C 
BRANCH  24  25
HETATM   25  C   UNL     1       6.006  14.148  24.800  0.00  0.00    -0.052 A 
HETATM   26  C   UNL     1       6.137  15.518  24.532  0.00  0.00     0.007 A 
HETATM   27  C   UNL     1       5.127  16.210  23.862  0.00  0.00     0.001 A 
HETATM   28  C   UNL     1       3.986  15.539  23.425  0.00  0.00     0.007 A 
HETATM   29  C   UNL     1       3.855  14.161  23.628  0.00  0.00    -0.061 A 
HETATM   30  C   UNL     1       4.869  13.472  24.314  0.00  0.00     0.014 A 
HETATM   31  C   UNL     1       2.670  13.427  23.072  0.00  0.00     0.048 C 
ENDBRANCH  24  25
ENDBRANCH  10  24
TORSDOF 5
ENDMDL
MODEL 4
REMARK VINA RESULT:    -8.633      2.844      4.045
REMARK INTER + INTRA:         -11.847
REMARK INTER:                 -10.545
REMARK INTRA:                  -1.302
REMARK UNBOUND:                -0.944
REMARK  5 active torsions:
REMARK  status: ('A' for Active; 'I' for Inactive)
REMARK    1  A    between atoms: C_7  and  N_8 
REMARK       I    between atoms: N_8  and  C_10 
REMARK    2  A    between atoms: C_10  and  C_12 
REMARK    3  A    between atoms: C_14  and  O_15 
REMARK    4  A    between atoms: C_22  and  C_23 
REMARK    5  A    between atoms: C_23  and  C_24 
ROOT
HETATM    1  C   UNL     1       8.041  10.478  22.768  0.00  0.00     0.066 A 
HETATM    2  C   UNL     1       7.991  11.665  23.554  0.00  0.00     0.035 A 
HETATM    3  C   UNL     1       9.153   9.640  22.924  0.00  0.00     0.083 A 
HETATM    4  C   UNL     1      10.149   9.885  23.879  0.00  0.00     0.069 A 
HETATM    5  C   UNL     1      10.052  11.057  24.632  0.00  0.00     0.065 A 
HETATM    6  C   UNL     1       8.999  11.952  24.508  0.00  0.00     0.020 A 
HETATM    7  N   UNL     1      10.891  11.600  25.564  0.00  0.00    -0.277 N 
HETATM    8  H   UNL     1      11.781  11.235  25.883  0.00  0.00     0.189 HD
HETATM    9  N   UNL     1      10.472  12.768  26.067  0.00  0.00    -0.178 NA
HETATM   10  C   UNL     1       9.292  12.982  25.460  0.00  0.00     0.071 A 
ENDROOT
BRANCH   1  11
HETATM   11  C   UNL     1       6.937  10.330  21.750  0.00  0.00     0.260 C 
HETATM   12  N   UNL     1       6.980  10.901  20.447  0.00  0.00    -0.318 N 
HETATM   13  C   UNL     1       7.993  11.880  20.051  0.00  0.00     0.159 C 
HETATM   14  O   UNL     1       5.991   9.646  22.155  0.00  0.00    -0.267 OA
BRANCH  12  15
HETATM   15  C   UNL     1       6.000  10.542  19.422  0.00  0.00     0.038 A 
HETATM   16  C   UNL     1       5.001  11.442  19.009  0.00  0.00     0.053 A 
HETATM   17  C   UNL     1       4.114  11.125  17.967  0.00  0.00     0.036 A 
HETATM   18 CL   UNL     1       2.930  12.276  17.464  0.00  0.00    -0.084 Cl
HETATM   19  C   UNL     1       4.184   9.901  17.314  0.00  0.00     0.024 A 
HETATM   20  C   UNL     1       5.153   8.992  17.711  0.00  0.00     0.004 A 
HETATM   21  C   UNL     1       6.050   9.311  18.746  0.00  0.00     0.030 A 
ENDBRANCH  12  15
ENDBRANCH   1  11
BRANCH   3  22
HETATM   22  O   UNL     1       9.416   8.553  22.135  0.00  0.00    -0.360 OA
HETATM   23  H   UNL     1      10.272   8.708  21.710  0.00  0.00     0.217 HD
ENDBRANCH   3  22
BRANCH  10  24
HETATM   24  C   UNL     1       8.534  14.230  25.773  0.00  0.00     0.100 C 
BRANCH  24  25
HETATM   25  C   UNL     1       8.364  15.018  24.491  0.00  0.00    -0.052 A 
HETATM   26  C   UNL     1       7.078  15.269  23.990  0.00  0.00     0.007 A 
HETATM   27  C   UNL     1       6.908  15.853  22.734  0.00  0.00     0.001 A 
HETATM   28  C   UNL     1       8.016  16.221  21.974  0.00  0.00     0.007 A 
HETATM   29  C   UNL     1       9.310  16.035  22.473  0.00  0.00    -0.061 A 
HETATM   30  C   UNL     1       9.475  15.435  23.732  0.00  0.00     0.014 A 
HETATM   31  C   UNL     1      10.495  16.520  21.692  0.00  0.00     0.048 C 
ENDBRANCH  24  25
ENDBRANCH  10  24
TORSDOF 5
ENDMDL
MODEL 5
REMARK VINA RESULT:    -8.258      2.456      5.059
REMARK INTER + INTRA:         -11.374
REMARK INTER:                 -10.430
REMARK INTRA:                  -0.944
REMARK UNBOUND:                -0.944
REMARK  5 active torsions:
REMARK  status: ('A' for Active; 'I' for Inactive)
REMARK    1  A    between atoms: C_7  and  N_8 
REMARK       I    between atoms: N_8  and  C_10 
REMARK    2  A    between atoms: C_10  and  C_12 
REMARK    3  A    between atoms: C_14  and  O_15 
REMARK    4  A    between atoms: C_22  and  C_23 
REMARK    5  A    between atoms: C_23  and  C_24 
ROOT
HETATM    1  C   UNL     1       5.050  11.932  21.098  0.00  0.00     0.066 A 
HETATM    2  C   UNL     1       6.357  12.497  21.065  0.00  0.00     0.035 A 
HETATM    3  C   UNL     1       4.109  12.516  21.957  0.00  0.00     0.083 A 
HETATM    4  C   UNL     1       4.387  13.673  22.698  0.00  0.00     0.069 A 
HETATM    5  C   UNL     1       5.679  14.195  22.626  0.00  0.00     0.065 A 
HETATM    6  C   UNL     1       6.673  13.651  21.825  0.00  0.00     0.020 A 
HETATM    7  N   UNL     1       6.264  15.244  23.279  0.00  0.00    -0.277 N 
HETATM    8  H   UNL     1       5.845  15.852  23.973  0.00  0.00     0.189 HD
HETATM    9  N   UNL     1       7.551  15.438  22.967  0.00  0.00    -0.178 NA
HETATM   10  C   UNL     1       7.811  14.493  22.046  0.00  0.00     0.071 A 
ENDROOT
BRANCH   1  11
HETATM   11  C   UNL     1       4.870  10.671  20.290  0.00  0.00     0.260 C 
HETATM   12  N   UNL     1       4.453  10.655  18.929  0.00  0.00    -0.318 N 
HETATM   13  C   UNL     1       3.935  11.845  18.253  0.00  0.00     0.159 C 
HETATM   14  O   UNL     1       5.138   9.645  20.924  0.00  0.00    -0.267 OA
BRANCH  12  15
HETATM   15  C   UNL     1       4.514   9.435  18.124  0.00  0.00     0.038 A 
HETATM   16  C   UNL     1       3.369   8.902  17.506  0.00  0.00     0.053 A 
HETATM   17  C   UNL     1       3.447   7.778  16.666  0.00  0.00     0.036 A 
HETATM   18 CL   UNL     1       2.022   7.181  15.893  0.00  0.00    -0.084 Cl
HETATM   19  C   UNL     1       4.659   7.144  16.427  0.00  0.00     0.024 A 
HETATM   20  C   UNL     1       5.801   7.644  17.035  0.00  0.00     0.004 A 
HETATM   21  C   UNL     1       5.728   8.776  17.867  0.00  0.00     0.030 A 
ENDBRANCH  12  15
ENDBRANCH   1  11
BRANCH   3  22
HETATM   22  O   UNL     1       2.870  11.995  22.211  0.00  0.00    -0.360 OA
HETATM   23  H   UNL     1       2.235  12.488  21.671  0.00  0.00     0.217 HD
ENDBRANCH   3  22
BRANCH  10  24
HETATM   24  C   UNL     1       9.188  14.399  21.476  0.00  0.00     0.100 C 
BRANCH  24  25
HETATM   25  C   UNL     1      10.132  13.976  22.582  0.00  0.00    -0.052 A 
HETATM   26  C   UNL     1      10.087  12.664  23.076  0.00  0.00     0.007 A 
HETATM   27  C   UNL     1      10.836  12.302  24.196  0.00  0.00     0.001 A 
HETATM   28  C   UNL     1      11.662  13.235  24.821  0.00  0.00     0.007 A 
HETATM   29  C   UNL     1      11.771  14.535  24.315  0.00  0.00    -0.061 A 
HETATM   30  C   UNL     1      11.004  14.897  23.195  0.00  0.00     0.014 A 
HETATM   31  C   UNL     1      12.732  15.506  24.934  0.00  0.00     0.048 C 
ENDBRANCH  24  25
ENDBRANCH  10  24
TORSDOF 5
ENDMDL
MODEL 6
REMARK VINA RESULT:    -8.195      4.002      6.374
REMARK INTER + INTRA:         -11.294
REMARK INTER:                 -10.055
REMARK INTRA:                  -1.239
REMARK UNBOUND:                -0.944
REMARK  5 active torsions:
REMARK  status: ('A' for Active; 'I' for Inactive)
REMARK    1  A    between atoms: C_7  and  N_8 
REMARK       I    between atoms: N_8  and  C_10 
REMARK    2  A    between atoms: C_10  and  C_12 
REMARK    3  A    between atoms: C_14  and  O_15 
REMARK    4  A    between atoms: C_22  and  C_23 
REMARK    5  A    between atoms: C_23  and  C_24 
ROOT
HETATM    1  C   UNL     1       6.644  10.682  23.115  0.00  0.00     0.066 A 
HETATM    2  C   UNL     1       7.733  11.300  22.436  0.00  0.00     0.035 A 
HETATM    3  C   UNL     1       6.887   9.463  23.764  0.00  0.00     0.083 A 
HETATM    4  C   UNL     1       8.167   8.896  23.838  0.00  0.00     0.069 A 
HETATM    5  C   UNL     1       9.204   9.543  23.164  0.00  0.00     0.065 A 
HETATM    6  C   UNL     1       9.031  10.734  22.471  0.00  0.00     0.020 A 
HETATM    7  N   UNL     1      10.516   9.201  22.988  0.00  0.00    -0.277 N 
HETATM    8  H   UNL     1      10.989   8.371  23.326  0.00  0.00     0.189 HD
HETATM    9  N   UNL     1      11.217  10.070  22.251  0.00  0.00    -0.178 NA
HETATM   10  C   UNL     1      10.333  11.039  21.956  0.00  0.00     0.071 A 
ENDROOT
BRANCH   1  11
HETATM   11  C   UNL     1       5.306  11.357  22.942  0.00  0.00     0.260 C 
HETATM   12  N   UNL     1       4.670  12.127  23.956  0.00  0.00    -0.318 N 
HETATM   13  C   UNL     1       5.142  12.143  25.342  0.00  0.00     0.159 C 
HETATM   14  O   UNL     1       4.819  11.190  21.818  0.00  0.00    -0.267 OA
BRANCH  12  15
HETATM   15  C   UNL     1       3.493  12.947  23.670  0.00  0.00     0.038 A 
HETATM   16  C   UNL     1       2.194  12.410  23.704  0.00  0.00     0.053 A 
HETATM   17  C   UNL     1       1.062  13.219  23.510  0.00  0.00     0.036 A 
HETATM   18 CL   UNL     1      -0.518  12.526  23.601  0.00  0.00    -0.084 Cl
HETATM   19  C   UNL     1       1.187  14.580  23.263  0.00  0.00     0.024 A 
HETATM   20  C   UNL     1       2.458  15.131  23.214  0.00  0.00     0.004 A 
HETATM   21  C   UNL     1       3.593  14.326  23.420  0.00  0.00     0.030 A 
ENDBRANCH  12  15
ENDBRANCH   1  11
BRANCH   3  22
HETATM   22  O   UNL     1       5.915   8.679  24.323  0.00  0.00    -0.360 OA
HETATM   23  H   UNL     1       5.615   8.063  23.639  0.00  0.00     0.217 HD
ENDBRANCH   3  22
BRANCH  10  24
HETATM   24  C   UNL     1      10.774  12.187  21.110  0.00  0.00     0.100 C 
BRANCH  24  25
HETATM   25  C   UNL     1      10.318  13.470  21.774  0.00  0.00    -0.052 A 
HETATM   26  C   UNL     1       9.295  14.232  21.191  0.00  0.00     0.007 A 
HETATM   27  C   UNL     1       8.971  15.491  21.701  0.00  0.00     0.001 A 
HETATM   28  C   UNL     1       9.642  15.992  22.814  0.00  0.00     0.007 A 
HETATM   29  C   UNL     1      10.626  15.228  23.451  0.00  0.00    -0.061 A 
HETATM   30  C   UNL     1      10.957  13.968  22.925  0.00  0.00     0.014 A 
HETATM   31  C   UNL     1      11.277  15.733  24.704  0.00  0.00     0.048 C 
ENDBRANCH  24  25
ENDBRANCH  10  24
TORSDOF 5
ENDMDL
MODEL 7
REMARK VINA RESULT:    -8.165      3.708      7.037
REMARK INTER + INTRA:         -11.256
REMARK INTER:                  -9.947
REMARK INTRA:                  -1.309
REMARK UNBOUND:                -0.944
REMARK  5 active torsions:
REMARK  status: ('A' for Active; 'I' for Inactive)
REMARK    1  A    between atoms: C_7  and  N_8 
REMARK       I    between atoms: N_8  and  C_10 
REMARK    2  A    between atoms: C_10  and  C_12 
REMARK    3  A    between atoms: C_14  and  O_15 
REMARK    4  A    between atoms: C_22  and  C_23 
REMARK    5  A    between atoms: C_23  and  C_24 
ROOT
HETATM    1  C   UNL     1       5.194   9.583  21.429  0.00  0.00     0.066 A 
HETATM    2  C   UNL     1       6.310   9.454  22.306  0.00  0.00     0.035 A 
HETATM    3  C   UNL     1       5.011   8.591  20.457  0.00  0.00     0.083 A 
HETATM    4  C   UNL     1       5.826   7.451  20.386  0.00  0.00     0.069 A 
HETATM    5  C   UNL     1       6.901   7.366  21.273  0.00  0.00     0.065 A 
HETATM    6  C   UNL     1       7.165   8.327  22.239  0.00  0.00     0.020 A 
HETATM    7  N   UNL     1       7.897   6.438  21.393  0.00  0.00    -0.277 N 
HETATM    8  H   UNL     1       8.043   5.611  20.826  0.00  0.00     0.189 HD
HETATM    9  N   UNL     1       8.783   6.703  22.360  0.00  0.00    -0.178 NA
HETATM   10  C   UNL     1       8.329   7.839  22.917  0.00  0.00     0.071 A 
ENDROOT
BRANCH   1  11
HETATM   11  C   UNL     1       4.405  10.862  21.570  0.00  0.00     0.260 C 
HETATM   12  N   UNL     1       3.672  11.216  22.737  0.00  0.00    -0.318 N 
HETATM   13  C   UNL     1       3.422  10.269  23.825  0.00  0.00     0.159 C 
HETATM   14  O   UNL     1       4.471  11.585  20.570  0.00  0.00    -0.267 OA
BRANCH  12  15
HETATM   15  C   UNL     1       3.117  12.558  22.913  0.00  0.00     0.038 A 
HETATM   16  C   UNL     1       3.908  13.629  23.363  0.00  0.00     0.053 A 
HETATM   17  C   UNL     1       3.393  14.934  23.452  0.00  0.00     0.036 A 
HETATM   18 CL   UNL     1       4.411  16.228  23.970  0.00  0.00    -0.084 Cl
HETATM   19  C   UNL     1       2.075  15.208  23.110  0.00  0.00     0.024 A 
HETATM   20  C   UNL     1       1.271  14.166  22.674  0.00  0.00     0.004 A 
HETATM   21  C   UNL     1       1.788  12.861  22.572  0.00  0.00     0.030 A 
ENDBRANCH  12  15
ENDBRANCH   1  11
BRANCH   3  22
HETATM   22  O   UNL     1       4.084   8.655  19.453  0.00  0.00    -0.360 OA
HETATM   23  H   UNL     1       4.455   9.215  18.756  0.00  0.00     0.217 HD
ENDBRANCH   3  22
BRANCH  10  24
HETATM   24  C   UNL     1       9.099   8.451  24.042  0.00  0.00     0.100 C 
BRANCH  24  25
HETATM   25  C   UNL     1       9.429   9.881  23.669  0.00  0.00    -0.052 A 
HETATM   26  C   UNL     1       8.767  10.940  24.307  0.00  0.00     0.007 A 
HETATM   27  C   UNL     1       8.943  12.253  23.869  0.00  0.00     0.001 A 
HETATM   28  C   UNL     1       9.803  12.531  22.808  0.00  0.00     0.007 A 
HETATM   29  C   UNL     1      10.520  11.500  22.190  0.00  0.00    -0.061 A 
HETATM   30  C   UNL     1      10.328  10.179  22.627  0.00  0.00     0.014 A 
HETATM   31  C   UNL     1      11.514  11.816  21.112  0.00  0.00     0.048 C 
ENDBRANCH  24  25
ENDBRANCH  10  24
TORSDOF 5
ENDMDL
MODEL 8
REMARK VINA RESULT:    -8.163      3.965      7.192
REMARK INTER + INTRA:         -11.254
REMARK INTER:                 -10.571
REMARK INTRA:                  -0.683
REMARK UNBOUND:                -0.944
REMARK  5 active torsions:
REMARK  status: ('A' for Active; 'I' for Inactive)
REMARK    1  A    between atoms: C_7  and  N_8 
REMARK       I    between atoms: N_8  and  C_10 
REMARK    2  A    between atoms: C_10  and  C_12 
REMARK    3  A    between atoms: C_14  and  O_15 
REMARK    4  A    between atoms: C_22  and  C_23 
REMARK    5  A    between atoms: C_23  and  C_24 
ROOT
HETATM    1  C   UNL     1       8.350  10.641  23.438  0.00  0.00     0.066 A 
HETATM    2  C   UNL     1       7.277  11.258  22.733  0.00  0.00     0.035 A 
HETATM    3  C   UNL     1       8.378   9.240  23.486  0.00  0.00     0.083 A 
HETATM    4  C   UNL     1       7.450   8.448  22.794  0.00  0.00     0.069 A 
HETATM    5  C   UNL     1       6.422   9.099  22.111  0.00  0.00     0.065 A 
HETATM    6  C   UNL     1       6.309  10.481  22.049  0.00  0.00     0.020 A 
HETATM    7  N   UNL     1       5.346   8.610  21.425  0.00  0.00    -0.277 N 
HETATM    8  H   UNL     1       5.086   7.639  21.293  0.00  0.00     0.189 HD
HETATM    9  N   UNL     1       4.546   9.552  20.912  0.00  0.00    -0.178 NA
HETATM   10  C   UNL     1       5.141  10.708  21.251  0.00  0.00     0.071 A 
ENDROOT
BRANCH   1  11
HETATM   11  C   UNL     1       9.270  11.585  24.172  0.00  0.00     0.260 C 
HETATM   12  N   UNL     1      10.456  12.133  23.608  0.00  0.00    -0.318 N 
HETATM   13  C   UNL     1      11.020  11.652  22.346  0.00  0.00     0.159 C 
HETATM   14  O   UNL     1       8.882  11.851  25.315  0.00  0.00    -0.267 OA
BRANCH  12  15
HETATM   15  C   UNL     1      11.188  13.214  24.268  0.00  0.00     0.038 A 
HETATM   16  C   UNL     1      11.337  13.257  25.665  0.00  0.00     0.053 A 
HETATM   17  C   UNL     1      12.111  14.251  26.289  0.00  0.00     0.036 A 
HETATM   18 CL   UNL     1      12.302  14.243  28.005  0.00  0.00    -0.084 Cl
HETATM   19  C   UNL     1      12.746  15.237  25.545  0.00  0.00     0.024 A 
HETATM   20  C   UNL     1      12.604  15.222  24.166  0.00  0.00     0.004 A 
HETATM   21  C   UNL     1      11.840  14.221  23.538  0.00  0.00     0.030 A 
ENDBRANCH  12  15
ENDBRANCH   1  11
BRANCH   3  22
HETATM   22  O   UNL     1       9.251   8.512  24.247  0.00  0.00    -0.360 OA
HETATM   23  H   UNL     1       9.026   8.673  25.175  0.00  0.00     0.217 HD
ENDBRANCH   3  22
BRANCH  10  24
HETATM   24  C   UNL     1       4.500  11.996  20.851  0.00  0.00     0.100 C 
BRANCH  24  25
HETATM   25  C   UNL     1       4.381  12.870  22.082  0.00  0.00    -0.052 A 
HETATM   26  C   UNL     1       3.322  12.672  22.980  0.00  0.00     0.007 A 
HETATM   27  C   UNL     1       3.108  13.565  24.032  0.00  0.00     0.001 A 
HETATM   28  C   UNL     1       3.962  14.650  24.218  0.00  0.00     0.007 A 
HETATM   29  C   UNL     1       5.060  14.839  23.372  0.00  0.00    -0.061 A 
HETATM   30  C   UNL     1       5.263  13.945  22.308  0.00  0.00     0.014 A 
HETATM   31  C   UNL     1       6.029  15.953  23.634  0.00  0.00     0.048 C 
ENDBRANCH  24  25
ENDBRANCH  10  24
TORSDOF 5
ENDMDL
MODEL 9
REMARK VINA RESULT:    -8.083      3.672      7.131
REMARK INTER + INTRA:         -11.153
REMARK INTER:                  -9.887
REMARK INTRA:                  -1.266
REMARK UNBOUND:                -0.944
REMARK  5 active torsions:
REMARK  status: ('A' for Active; 'I' for Inactive)
REMARK    1  A    between atoms: C_7  and  N_8 
REMARK       I    between atoms: N_8  and  C_10 
REMARK    2  A    between atoms: C_10  and  C_12 
REMARK    3  A    between atoms: C_14  and  O_15 
REMARK    4  A    between atoms: C_22  and  C_23 
REMARK    5  A    between atoms: C_23  and  C_24 
ROOT
HETATM    1  C   UNL     1       8.349  12.455  21.615  0.00  0.00     0.066 A 
HETATM    2  C   UNL     1       7.073  12.132  22.159  0.00  0.00     0.035 A 
HETATM    3  C   UNL     1       8.552  12.226  20.247  0.00  0.00     0.083 A 
HETATM    4  C   UNL     1       7.525  11.785  19.400  0.00  0.00     0.069 A 
HETATM    5  C   UNL     1       6.290  11.490  19.978  0.00  0.00     0.065 A 
HETATM    6  C   UNL     1       6.025  11.658  21.331  0.00  0.00     0.020 A 
HETATM    7  N   UNL     1       5.143  10.976  19.439  0.00  0.00    -0.277 N 
HETATM    8  H   UNL     1       4.983  10.696  18.479  0.00  0.00     0.189 HD
HETATM    9  N   UNL     1       4.150  10.804  20.319  0.00  0.00    -0.178 NA
HETATM   10  C   UNL     1       4.659  11.254  21.480  0.00  0.00     0.071 A 
ENDROOT
BRANCH   1  11
HETATM   11  C   UNL     1       9.388  12.890  22.619  0.00  0.00     0.260 C 
HETATM   12  N   UNL     1       9.683  14.250  22.916  0.00  0.00    -0.318 N 
HETATM   13  C   UNL     1       9.170  15.359  22.109  0.00  0.00     0.159 C 
HETATM   14  O   UNL     1       9.954  11.941  23.174  0.00  0.00    -0.267 OA
BRANCH  12  15
HETATM   15  C   UNL     1      10.527  14.619  24.052  0.00  0.00     0.038 A 
HETATM   16  C   UNL     1       9.978  14.914  25.313  0.00  0.00     0.053 A 
HETATM   17  C   UNL     1      10.797  15.186  26.422  0.00  0.00     0.036 A 
HETATM   18 CL   UNL     1      10.082  15.503  27.962  0.00  0.00    -0.084 Cl
HETATM   19  C   UNL     1      12.181  15.188  26.309  0.00  0.00     0.024 A 
HETATM   20  C   UNL     1      12.746  14.911  25.073  0.00  0.00     0.004 A 
HETATM   21  C   UNL     1      11.929  14.626  23.963  0.00  0.00     0.030 A 
ENDBRANCH  12  15
ENDBRANCH   1  11
BRANCH   3  22
HETATM   22  O   UNL     1       9.761  12.341  19.617  0.00  0.00    -0.360 OA
HETATM   23  H   UNL     1      10.405  11.839  20.138  0.00  0.00     0.217 HD
ENDBRANCH   3  22
BRANCH  10  24
HETATM   24  C   UNL     1       3.815  11.194  22.710  0.00  0.00     0.100 C 
BRANCH  24  25
HETATM   25  C   UNL     1       3.218  12.566  22.945  0.00  0.00    -0.052 A 
HETATM   26  C   UNL     1       1.976  12.893  22.383  0.00  0.00     0.007 A 
HETATM   27  C   UNL     1       1.485  14.198  22.457  0.00  0.00     0.001 A 
HETATM   28  C   UNL     1       2.214  15.186  23.115  0.00  0.00     0.007 A 
HETATM   29  C   UNL     1       3.430  14.875  23.733  0.00  0.00    -0.061 A 
HETATM   30  C   UNL     1       3.924  13.564  23.645  0.00  0.00     0.014 A 
HETATM   31  C   UNL     1       4.163  15.921  24.521  0.00  0.00     0.048 C 
ENDBRANCH  24  25
ENDBRANCH  10  24
TORSDOF 5
ENDMDL
