MODEL 1
REMARK VINA RESULT:    -6.959      0.000      0.000
REMARK INTER + INTRA:         -10.213
REMARK INTER:                  -9.288
REMARK INTRA:                  -0.925
REMARK UNBOUND:                -1.016
REMARK  6 active torsions:
REMARK  status: ('A' for Active; 'I' for Inactive)
REMARK    1  A    between atoms: C_2  and  C_3 
REMARK    2  A    between atoms: C_3  and  C_5 
REMARK    3  A    between atoms: C_11  and  O_12 
REMARK    4  A    between atoms: C_13  and  C_14 
REMARK       I    between atoms: C_14  and  N_16 
REMARK    5  A    between atoms: N_16  and  C_18 
REMARK    6  A    between atoms: C_21  and  N_22 
ROOT
HETATM    1  C   UNL     1       2.391   6.351  17.942  0.00  0.00     0.071 A 
HETATM    2  N   UNL     1       3.081   6.077  16.823  0.00  0.00    -0.178 NA
HETATM    3  N   UNL     1       4.355   6.013  17.236  0.00  0.00    -0.277 N 
HETATM    4  H   UNL     1       5.072   5.822  16.541  0.00  0.00     0.189 HD
HETATM    5  C   UNL     1       4.526   6.239  18.573  0.00  0.00     0.065 A 
HETATM    6  C   UNL     1       5.676   6.313  19.363  0.00  0.00     0.069 A 
HETATM    7  C   UNL     1       5.511   6.624  20.728  0.00  0.00     0.083 A 
HETATM    8  C   UNL     1       4.244   6.769  21.307  0.00  0.00     0.066 A 
HETATM    9  C   UNL     1       3.109   6.688  20.458  0.00  0.00     0.035 A 
HETATM   10  C   UNL     1       3.247   6.441  19.078  0.00  0.00     0.020 A 
ENDROOT
BRANCH   8  11
HETATM   11  C   UNL     1       3.931   7.160  22.724  0.00  0.00     0.260 C 
HETATM   12  O   UNL     1       4.189   8.345  22.971  0.00  0.00    -0.267 OA
HETATM   13  N   UNL     1       3.362   6.286  23.684  0.00  0.00    -0.318 N 
HETATM   14  C   UNL     1       3.203   4.850  23.490  0.00  0.00     0.159 C 
BRANCH  13  15
HETATM   15  C   UNL     1       2.984   6.793  24.986  0.00  0.00     0.037 A 
HETATM   16  C   UNL     1       1.722   7.345  25.214  0.00  0.00     0.032 A 
HETATM   17  C   UNL     1       1.370   7.876  26.464  0.00  0.00     0.031 A 
HETATM   18  C   UNL     1       2.256   7.889  27.548  0.00  0.00     0.030 A 
HETATM   19  C   UNL     1       3.493   7.268  27.333  0.00  0.00     0.031 A 
HETATM   20  C   UNL     1       3.851   6.727  26.084  0.00  0.00     0.032 A 
BRANCH  18  21
HETATM   21  N   UNL     1       1.944   8.518  28.733  0.00  0.00    -0.377 N 
HETATM   22  C   UNL     1       0.613   9.050  29.058  0.00  0.00     0.149 C 
HETATM   23  C   UNL     1       0.206   8.603  30.472  0.00  0.00     0.187 C 
HETATM   24  O   UNL     1       1.193   8.971  31.451  0.00  0.00    -0.388 OA
HETATM   25  C   UNL     1       2.458   8.370  31.130  0.00  0.00     0.187 C 
HETATM   26  C   UNL     1       2.967   8.818  29.749  0.00  0.00     0.149 C 
ENDBRANCH  18  21
ENDBRANCH  13  15
ENDBRANCH   8  11
BRANCH   7  27
HETATM   27  O   UNL     1       6.654   6.840  21.449  0.00  0.00    -0.360 OA
HETATM   28  H   UNL     1       7.363   6.265  21.115  0.00  0.00     0.217 HD
ENDBRANCH   7  27
BRANCH   1  29
HETATM   29  C   UNL     1       0.895   6.525  17.844  0.00  0.00     0.036 C 
HETATM   30  C   UNL     1       0.158   5.574  18.794  0.00  0.00     0.016 C 
BRANCH  29  31
HETATM   31  C   UNL     1       0.362   6.372  16.408  0.00  0.00     0.006 C 
HETATM   32  C   UNL     1      -0.136   4.966  16.098  0.00  0.00     0.006 C 
ENDBRANCH  29  31
ENDBRANCH   1  29
TORSDOF 6
ENDMDL
MODEL 2
REMARK VINA RESULT:    -6.873      0.897      1.282
REMARK INTER + INTRA:         -10.099
REMARK INTER:                  -9.161
REMARK INTRA:                  -0.939
REMARK UNBOUND:                -1.016
REMARK  6 active torsions:
REMARK  status: ('A' for Active; 'I' for Inactive)
REMARK    1  A    between atoms: C_2  and  C_3 
REMARK    2  A    between atoms: C_3  and  C_5 
REMARK    3  A    between atoms: C_11  and  O_12 
REMARK    4  A    between atoms: C_13  and  C_14 
REMARK       I    between atoms: C_14  and  N_16 
REMARK    5  A    between atoms: N_16  and  C_18 
REMARK    6  A    between atoms: C_21  and  N_22 
ROOT
HETATM    1  C   UNL     1       2.664   6.425  18.118  0.00  0.00     0.071 A 
HETATM    2  N   UNL     1       3.447   6.117  17.072  0.00  0.00    -0.178 NA
HETATM    3  N   UNL     1       4.652   5.905  17.621  0.00  0.00    -0.277 N 
HETATM    4  H   UNL     1       5.421   5.662  17.003  0.00  0.00     0.189 HD
HETATM    5  C   UNL     1       4.689   6.067  18.977  0.00  0.00     0.065 A 
HETATM    6  C   UNL     1       5.741   5.991  19.894  0.00  0.00     0.069 A 
HETATM    7  C   UNL     1       5.451   6.273  21.244  0.00  0.00     0.083 A 
HETATM    8  C   UNL     1       4.148   6.532  21.684  0.00  0.00     0.066 A 
HETATM    9  C   UNL     1       3.116   6.600  20.711  0.00  0.00     0.035 A 
HETATM   10  C   UNL     1       3.387   6.386  19.345  0.00  0.00     0.020 A 
ENDROOT
BRANCH   8  11
HETATM   11  C   UNL     1       3.714   6.906  23.074  0.00  0.00     0.260 C 
HETATM   12  O   UNL     1       3.534   8.123  23.218  0.00  0.00    -0.267 OA
HETATM   13  N   UNL     1       3.489   5.973  24.117  0.00  0.00    -0.318 N 
HETATM   14  C   UNL     1       3.850   4.562  24.043  0.00  0.00     0.159 C 
BRANCH  13  15
HETATM   15  C   UNL     1       2.953   6.422  25.384  0.00  0.00     0.037 A 
HETATM   16  C   UNL     1       3.791   6.791  26.438  0.00  0.00     0.032 A 
HETATM   17  C   UNL     1       3.273   7.185  27.681  0.00  0.00     0.031 A 
HETATM   18  C   UNL     1       1.898   7.227  27.940  0.00  0.00     0.030 A 
HETATM   19  C   UNL     1       1.063   6.927  26.856  0.00  0.00     0.031 A 
HETATM   20  C   UNL     1       1.575   6.537  25.603  0.00  0.00     0.032 A 
BRANCH  18  21
HETATM   21  N   UNL     1       1.404   7.499  29.196  0.00  0.00    -0.377 N 
HETATM   22  C   UNL     1       0.610   6.552  29.992  0.00  0.00     0.149 C 
HETATM   23  C   UNL     1       1.156   6.496  31.429  0.00  0.00     0.187 C 
HETATM   24  O   UNL     1       1.208   7.801  32.030  0.00  0.00    -0.388 OA
HETATM   25  C   UNL     1       2.052   8.669  31.257  0.00  0.00     0.187 C 
HETATM   26  C   UNL     1       1.537   8.829  29.816  0.00  0.00     0.149 C 
ENDBRANCH  18  21
ENDBRANCH  13  15
ENDBRANCH   8  11
BRANCH   7  27
HETATM   27  O   UNL     1       6.519   6.342  22.098  0.00  0.00    -0.360 OA
HETATM   28  H   UNL     1       6.404   5.698  22.817  0.00  0.00     0.217 HD
ENDBRANCH   7  27
BRANCH   1  29
HETATM   29  C   UNL     1       1.214   6.760  17.861  0.00  0.00     0.036 C 
HETATM   30  C   UNL     1       0.280   5.753  18.541  0.00  0.00     0.016 C 
BRANCH  29  31
HETATM   31  C   UNL     1       0.879   6.881  16.363  0.00  0.00     0.006 C 
HETATM   32  C   UNL     1       0.103   5.687  15.823  0.00  0.00     0.006 C 
ENDBRANCH  29  31
ENDBRANCH   1  29
TORSDOF 6
ENDMDL
MODEL 3
REMARK VINA RESULT:    -6.646      5.428     10.938
REMARK INTER + INTRA:          -9.799
REMARK INTER:                  -9.089
REMARK INTRA:                  -0.711
REMARK UNBOUND:                -1.016
REMARK  6 active torsions:
REMARK  status: ('A' for Active; 'I' for Inactive)
REMARK    1  A    between atoms: C_2  and  C_3 
REMARK    2  A    between atoms: C_3  and  C_5 
REMARK    3  A    between atoms: C_11  and  O_12 
REMARK    4  A    between atoms: C_13  and  C_14 
REMARK       I    between atoms: C_14  and  N_16 
REMARK    5  A    between atoms: N_16  and  C_18 
REMARK    6  A    between atoms: C_21  and  N_22 
ROOT
HETATM    1  C   UNL     1       4.400   6.626  21.184  0.00  0.00     0.071 A 
HETATM    2  N   UNL     1       5.159   7.685  21.509  0.00  0.00    -0.178 NA
HETATM    3  N   UNL     1       4.736   8.652  20.681  0.00  0.00    -0.277 N 
HETATM    4  H   UNL     1       5.185   9.562  20.742  0.00  0.00     0.189 HD
HETATM    5  C   UNL     1       3.739   8.267  19.829  0.00  0.00     0.065 A 
HETATM    6  C   UNL     1       3.080   8.948  18.802  0.00  0.00     0.069 A 
HETATM    7  C   UNL     1       2.119   8.235  18.058  0.00  0.00     0.083 A 
HETATM    8  C   UNL     1       1.760   6.920  18.379  0.00  0.00     0.066 A 
HETATM    9  C   UNL     1       2.463   6.273  19.429  0.00  0.00     0.035 A 
HETATM   10  C   UNL     1       3.473   6.942  20.149  0.00  0.00     0.020 A 
ENDROOT
BRANCH   8  11
HETATM   11  C   UNL     1       0.803   6.031  17.634  0.00  0.00     0.260 C 
HETATM   12  O   UNL     1      -0.358   6.462  17.627  0.00  0.00    -0.267 OA
HETATM   13  N   UNL     1       1.178   4.838  16.967  0.00  0.00    -0.318 N 
HETATM   14  C   UNL     1       2.488   4.208  17.094  0.00  0.00     0.159 C 
BRANCH  13  15
HETATM   15  C   UNL     1       0.205   4.117  16.175  0.00  0.00     0.037 A 
HETATM   16  C   UNL     1      -0.091   4.498  14.865  0.00  0.00     0.032 A 
HETATM   17  C   UNL     1      -1.066   3.826  14.111  0.00  0.00     0.031 A 
HETATM   18  C   UNL     1      -1.797   2.748  14.622  0.00  0.00     0.030 A 
HETATM   19  C   UNL     1      -1.444   2.327  15.910  0.00  0.00     0.031 A 
HETATM   20  C   UNL     1      -0.462   2.991  16.672  0.00  0.00     0.032 A 
BRANCH  18  21
HETATM   21  N   UNL     1      -2.833   2.174  13.919  0.00  0.00    -0.377 N 
HETATM   22  C   UNL     1      -3.233   0.766  14.045  0.00  0.00     0.149 C 
HETATM   23  C   UNL     1      -4.760   0.672  14.207  0.00  0.00     0.187 C 
HETATM   24  O   UNL     1      -5.451   1.341  13.137  0.00  0.00    -0.388 OA
HETATM   25  C   UNL     1      -5.082   2.729  13.101  0.00  0.00     0.187 C 
HETATM   26  C   UNL     1      -3.570   2.911  12.877  0.00  0.00     0.149 C 
ENDBRANCH  18  21
ENDBRANCH  13  15
ENDBRANCH   8  11
BRANCH   7  27
HETATM   27  O   UNL     1       1.597   8.870  16.964  0.00  0.00    -0.360 OA
HETATM   28  H   UNL     1       2.313   9.105  16.351  0.00  0.00     0.217 HD
ENDBRANCH   7  27
BRANCH   1  29
HETATM   29  C   UNL     1       4.630   5.323  21.911  0.00  0.00     0.036 C 
HETATM   30  C   UNL     1       5.718   5.466  22.982  0.00  0.00     0.016 C 
BRANCH  29  31
HETATM   31  C   UNL     1       4.955   4.152  20.966  0.00  0.00     0.006 C 
HETATM   32  C   UNL     1       4.383   2.822  21.438  0.00  0.00     0.006 C 
ENDBRANCH  29  31
ENDBRANCH   1  29
TORSDOF 6
ENDMDL
MODEL 4
REMARK VINA RESULT:    -6.566      2.378     10.278
REMARK INTER + INTRA:          -9.693
REMARK INTER:                  -9.348
REMARK INTRA:                  -0.345
REMARK UNBOUND:                -1.016
REMARK  6 active torsions:
REMARK  status: ('A' for Active; 'I' for Inactive)
REMARK    1  A    between atoms: C_2  and  C_3 
REMARK    2  A    between atoms: C_3  and  C_5 
REMARK    3  A    between atoms: C_11  and  O_12 
REMARK    4  A    between atoms: C_13  and  C_14 
REMARK       I    between atoms: C_14  and  N_16 
REMARK    5  A    between atoms: N_16  and  C_18 
REMARK    6  A    between atoms: C_21  and  N_22 
ROOT
HETATM    1  C   UNL     1       1.993   7.286  30.709  0.00  0.00     0.071 A 
HETATM    2  N   UNL     1       1.367   7.849  31.755  0.00  0.00    -0.178 NA
HETATM    3  N   UNL     1       0.491   8.694  31.191  0.00  0.00    -0.277 N 
HETATM    4  H   UNL     1      -0.099   9.248  31.805  0.00  0.00     0.189 HD
HETATM    5  C   UNL     1       0.524   8.709  29.825  0.00  0.00     0.065 A 
HETATM    6  C   UNL     1      -0.177   9.473  28.888  0.00  0.00     0.069 A 
HETATM    7  C   UNL     1       0.136   9.283  27.526  0.00  0.00     0.083 A 
HETATM    8  C   UNL     1       1.046   8.306  27.105  0.00  0.00     0.066 A 
HETATM    9  C   UNL     1       1.733   7.559  28.099  0.00  0.00     0.035 A 
HETATM   10  C   UNL     1       1.486   7.772  29.469  0.00  0.00     0.020 A 
ENDROOT
BRANCH   8  11
HETATM   11  C   UNL     1       1.513   8.043  25.700  0.00  0.00     0.260 C 
HETATM   12  O   UNL     1       0.641   8.259  24.848  0.00  0.00    -0.267 OA
HETATM   13  N   UNL     1       2.826   7.629  25.361  0.00  0.00    -0.318 N 
HETATM   14  C   UNL     1       3.825   7.201  26.333  0.00  0.00     0.159 C 
BRANCH  13  15
HETATM   15  C   UNL     1       3.212   7.522  23.970  0.00  0.00     0.037 A 
HETATM   16  C   UNL     1       3.801   8.592  23.295  0.00  0.00     0.032 A 
HETATM   17  C   UNL     1       4.136   8.504  21.935  0.00  0.00     0.031 A 
HETATM   18  C   UNL     1       3.898   7.351  21.178  0.00  0.00     0.030 A 
HETATM   19  C   UNL     1       3.374   6.258  21.880  0.00  0.00     0.031 A 
HETATM   20  C   UNL     1       3.041   6.336  23.246  0.00  0.00     0.032 A 
BRANCH  18  21
HETATM   21  N   UNL     1       4.119   7.316  19.819  0.00  0.00    -0.377 N 
HETATM   22  C   UNL     1       5.186   6.535  19.179  0.00  0.00     0.149 C 
HETATM   23  C   UNL     1       4.612   5.750  17.987  0.00  0.00     0.187 C 
HETATM   24  O   UNL     1       3.937   6.614  17.056  0.00  0.00    -0.388 OA
HETATM   25  C   UNL     1       2.858   7.301  17.711  0.00  0.00     0.187 C 
HETATM   26  C   UNL     1       3.359   8.162  18.883  0.00  0.00     0.149 C 
ENDBRANCH  18  21
ENDBRANCH  13  15
ENDBRANCH   8  11
BRANCH   7  27
HETATM   27  O   UNL     1      -0.448  10.144  26.638  0.00  0.00    -0.360 OA
HETATM   28  H   UNL     1      -1.002  10.782  27.119  0.00  0.00     0.217 HD
ENDBRANCH   7  27
BRANCH   1  29
HETATM   29  C   UNL     1       3.089   6.283  30.978  0.00  0.00     0.036 C 
HETATM   30  C   UNL     1       3.167   5.928  32.468  0.00  0.00     0.016 C 
BRANCH  29  31
HETATM   31  C   UNL     1       4.465   6.737  30.460  0.00  0.00     0.006 C 
HETATM   32  C   UNL     1       5.132   5.715  29.549  0.00  0.00     0.006 C 
ENDBRANCH  29  31
ENDBRANCH   1  29
TORSDOF 6
ENDMDL
MODEL 5
REMARK VINA RESULT:    -6.481      3.523      9.159
REMARK INTER + INTRA:          -9.581
REMARK INTER:                  -8.643
REMARK INTRA:                  -0.937
REMARK UNBOUND:                -1.016
REMARK  6 active torsions:
REMARK  status: ('A' for Active; 'I' for Inactive)
REMARK    1  A    between atoms: C_2  and  C_3 
REMARK    2  A    between atoms: C_3  and  C_5 
REMARK    3  A    between atoms: C_11  and  O_12 
REMARK    4  A    between atoms: C_13  and  C_14 
REMARK       I    between atoms: C_14  and  N_16 
REMARK    5  A    between atoms: N_16  and  C_18 
REMARK    6  A    between atoms: C_21  and  N_22 
ROOT
HETATM    1  C   UNL     1      -0.796  11.176  26.114  0.00  0.00     0.071 A 
HETATM    2  N   UNL     1      -1.314  11.719  27.227  0.00  0.00    -0.178 NA
HETATM    3  N   UNL     1      -0.955  10.869  28.200  0.00  0.00    -0.277 N 
HETATM    4  H   UNL     1      -1.252  11.078  29.149  0.00  0.00     0.189 HD
HETATM    5  C   UNL     1      -0.230   9.794  27.768  0.00  0.00     0.065 A 
HETATM    6  C   UNL     1       0.275   8.682  28.446  0.00  0.00     0.069 A 
HETATM    7  C   UNL     1       0.945   7.702  27.685  0.00  0.00     0.083 A 
HETATM    8  C   UNL     1       1.184   7.864  26.315  0.00  0.00     0.066 A 
HETATM    9  C   UNL     1       0.646   9.012  25.674  0.00  0.00     0.035 A 
HETATM   10  C   UNL     1      -0.082   9.976  26.399  0.00  0.00     0.020 A 
ENDROOT
BRANCH   8  11
HETATM   11  C   UNL     1       1.825   6.877  25.380  0.00  0.00     0.260 C 
HETATM   12  O   UNL     1       1.352   5.736  25.476  0.00  0.00    -0.267 OA
HETATM   13  N   UNL     1       2.841   7.205  24.448  0.00  0.00    -0.318 N 
HETATM   14  C   UNL     1       3.543   8.484  24.421  0.00  0.00     0.159 C 
BRANCH  13  15
HETATM   15  C   UNL     1       3.307   6.209  23.507  0.00  0.00     0.037 A 
HETATM   16  C   UNL     1       2.760   6.107  22.227  0.00  0.00     0.032 A 
HETATM   17  C   UNL     1       3.181   5.113  21.329  0.00  0.00     0.031 A 
HETATM   18  C   UNL     1       4.161   4.171  21.660  0.00  0.00     0.030 A 
HETATM   19  C   UNL     1       4.756   4.326  22.919  0.00  0.00     0.031 A 
HETATM   20  C   UNL     1       4.345   5.324  23.823  0.00  0.00     0.032 A 
BRANCH  18  21
HETATM   21  N   UNL     1       4.481   3.129  20.819  0.00  0.00    -0.377 N 
HETATM   22  C   UNL     1       4.440   1.713  21.209  0.00  0.00     0.149 C 
HETATM   23  C   UNL     1       3.704   0.898  20.132  0.00  0.00     0.187 C 
HETATM   24  O   UNL     1       4.286   1.087  18.830  0.00  0.00    -0.388 OA
HETATM   25  C   UNL     1       4.237   2.476  18.463  0.00  0.00     0.187 C 
HETATM   26  C   UNL     1       5.008   3.357  19.462  0.00  0.00     0.149 C 
ENDBRANCH  18  21
ENDBRANCH  13  15
ENDBRANCH   8  11
BRANCH   7  27
HETATM   27  O   UNL     1       1.297   6.553  28.339  0.00  0.00    -0.360 OA
HETATM   28  H   UNL     1       0.610   6.324  28.987  0.00  0.00     0.217 HD
ENDBRANCH   7  27
BRANCH   1  29
HETATM   29  C   UNL     1      -1.036  11.868  24.794  0.00  0.00     0.036 C 
HETATM   30  C   UNL     1      -1.846  10.984  23.839  0.00  0.00     0.016 C 
BRANCH  29  31
HETATM   31  C   UNL     1       0.262  12.345  24.117  0.00  0.00     0.006 C 
HETATM   32  C   UNL     1       0.842  13.604  24.747  0.00  0.00     0.006 C 
ENDBRANCH  29  31
ENDBRANCH   1  29
TORSDOF 6
ENDMDL
MODEL 6
REMARK VINA RESULT:    -6.467      4.166      4.925
REMARK INTER + INTRA:          -9.563
REMARK INTER:                  -8.578
REMARK INTRA:                  -0.985
REMARK UNBOUND:                -1.016
REMARK  6 active torsions:
REMARK  status: ('A' for Active; 'I' for Inactive)
REMARK    1  A    between atoms: C_2  and  C_3 
REMARK    2  A    between atoms: C_3  and  C_5 
REMARK    3  A    between atoms: C_11  and  O_12 
REMARK    4  A    between atoms: C_13  and  C_14 
REMARK       I    between atoms: C_14  and  N_16 
REMARK    5  A    between atoms: N_16  and  C_18 
REMARK    6  A    between atoms: C_21  and  N_22 
ROOT
HETATM    1  C   UNL     1       0.865   5.652  17.034  0.00  0.00     0.071 A 
HETATM    2  N   UNL     1       0.532   6.535  16.078  0.00  0.00    -0.178 NA
HETATM    3  N   UNL     1       1.170   7.658  16.439  0.00  0.00    -0.277 N 
HETATM    4  H   UNL     1       1.054   8.481  15.854  0.00  0.00     0.189 HD
HETATM    5  C   UNL     1       1.898   7.546  17.590  0.00  0.00     0.065 A 
HETATM    6  C   UNL     1       2.644   8.482  18.311  0.00  0.00     0.069 A 
HETATM    7  C   UNL     1       3.241   8.053  19.514  0.00  0.00     0.083 A 
HETATM    8  C   UNL     1       3.175   6.721  19.940  0.00  0.00     0.066 A 
HETATM    9  C   UNL     1       2.401   5.812  19.171  0.00  0.00     0.035 A 
HETATM   10  C   UNL     1       1.741   6.228  17.998  0.00  0.00     0.020 A 
ENDROOT
BRANCH   8  11
HETATM   11  C   UNL     1       3.710   6.148  21.223  0.00  0.00     0.260 C 
HETATM   12  O   UNL     1       3.175   6.629  22.231  0.00  0.00    -0.267 OA
HETATM   13  N   UNL     1       4.696   5.133  21.293  0.00  0.00    -0.318 N 
HETATM   14  C   UNL     1       5.470   4.665  20.149  0.00  0.00     0.159 C 
BRANCH  13  15
HETATM   15  C   UNL     1       5.055   4.562  22.574  0.00  0.00     0.037 A 
HETATM   16  C   UNL     1       4.702   3.254  22.911  0.00  0.00     0.032 A 
HETATM   17  C   UNL     1       5.011   2.714  24.169  0.00  0.00     0.031 A 
HETATM   18  C   UNL     1       5.681   3.448  25.154  0.00  0.00     0.030 A 
HETATM   19  C   UNL     1       6.096   4.733  24.782  0.00  0.00     0.031 A 
HETATM   20  C   UNL     1       5.796   5.280  23.520  0.00  0.00     0.032 A 
BRANCH  18  21
HETATM   21  N   UNL     1       5.874   2.951  26.424  0.00  0.00    -0.377 N 
HETATM   22  C   UNL     1       6.659   1.747  26.728  0.00  0.00     0.149 C 
HETATM   23  C   UNL     1       7.623   2.035  27.892  0.00  0.00     0.187 C 
HETATM   24  O   UNL     1       6.927   2.536  29.047  0.00  0.00    -0.388 OA
HETATM   25  C   UNL     1       6.234   3.751  28.719  0.00  0.00     0.187 C 
HETATM   26  C   UNL     1       5.201   3.534  27.599  0.00  0.00     0.149 C 
ENDBRANCH  18  21
ENDBRANCH  13  15
ENDBRANCH   8  11
BRANCH   7  27
HETATM   27  O   UNL     1       3.837   9.018  20.280  0.00  0.00    -0.360 OA
HETATM   28  H   UNL     1       4.384   8.598  20.966  0.00  0.00     0.217 HD
ENDBRANCH   7  27
BRANCH   1  29
HETATM   29  C   UNL     1       0.288   4.259  16.961  0.00  0.00     0.036 C 
HETATM   30  C   UNL     1      -0.310   3.974  15.579  0.00  0.00     0.016 C 
BRANCH  29  31
HETATM   31  C   UNL     1      -0.746   3.974  18.066  0.00  0.00     0.006 C 
HETATM   32  C   UNL     1      -0.201   3.103  19.190  0.00  0.00     0.006 C 
ENDBRANCH  29  31
ENDBRANCH   1  29
TORSDOF 6
ENDMDL
MODEL 7
REMARK VINA RESULT:    -6.455      2.882      9.956
REMARK INTER + INTRA:          -9.547
REMARK INTER:                  -8.687
REMARK INTRA:                  -0.860
REMARK UNBOUND:                -1.016
REMARK  6 active torsions:
REMARK  status: ('A' for Active; 'I' for Inactive)
REMARK    1  A    between atoms: C_2  and  C_3 
REMARK    2  A    between atoms: C_3  and  C_5 
REMARK    3  A    between atoms: C_11  and  O_12 
REMARK    4  A    between atoms: C_13  and  C_14 
REMARK       I    between atoms: C_14  and  N_16 
REMARK    5  A    between atoms: N_16  and  C_18 
REMARK    6  A    between atoms: C_21  and  N_22 
ROOT
HETATM    1  C   UNL     1       1.707   7.383  26.446  0.00  0.00     0.071 A 
HETATM    2  N   UNL     1       2.417   7.741  27.528  0.00  0.00    -0.178 NA
HETATM    3  N   UNL     1       3.693   7.594  27.141  0.00  0.00    -0.277 N 
HETATM    4  H   UNL     1       4.422   7.803  27.817  0.00  0.00     0.189 HD
HETATM    5  C   UNL     1       3.843   7.151  25.857  0.00  0.00     0.065 A 
HETATM    6  C   UNL     1       4.982   6.828  25.114  0.00  0.00     0.069 A 
HETATM    7  C   UNL     1       4.789   6.336  23.807  0.00  0.00     0.083 A 
HETATM    8  C   UNL     1       3.518   6.253  23.226  0.00  0.00     0.066 A 
HETATM    9  C   UNL     1       2.395   6.591  24.026  0.00  0.00     0.035 A 
HETATM   10  C   UNL     1       2.553   7.026  25.357  0.00  0.00     0.020 A 
ENDROOT
BRANCH   8  11
HETATM   11  C   UNL     1       3.170   5.693  21.875  0.00  0.00     0.260 C 
HETATM   12  O   UNL     1       2.734   4.535  21.925  0.00  0.00    -0.267 OA
HETATM   13  N   UNL     1       3.283   6.414  20.660  0.00  0.00    -0.318 N 
HETATM   14  C   UNL     1       3.946   7.707  20.535  0.00  0.00     0.159 C 
BRANCH  13  15
HETATM   15  C   UNL     1       2.805   5.828  19.426  0.00  0.00     0.037 A 
HETATM   16  C   UNL     1       1.694   6.345  18.757  0.00  0.00     0.032 A 
HETATM   17  C   UNL     1       1.204   5.751  17.584  0.00  0.00     0.031 A 
HETATM   18  C   UNL     1       1.791   4.612  17.020  0.00  0.00     0.030 A 
HETATM   19  C   UNL     1       2.947   4.143  17.656  0.00  0.00     0.031 A 
HETATM   20  C   UNL     1       3.450   4.737  18.830  0.00  0.00     0.032 A 
BRANCH  18  21
HETATM   21  N   UNL     1       1.232   3.967  15.939  0.00  0.00    -0.377 N 
HETATM   22  C   UNL     1       0.481   4.645  14.874  0.00  0.00     0.149 C 
HETATM   23  C   UNL     1       0.976   4.162  13.500  0.00  0.00     0.187 C 
HETATM   24  O   UNL     1       0.910   2.730  13.384  0.00  0.00    -0.388 OA
HETATM   25  C   UNL     1       1.717   2.113  14.401  0.00  0.00     0.187 C 
HETATM   26  C   UNL     1       1.245   2.499  15.814  0.00  0.00     0.149 C 
ENDBRANCH  18  21
ENDBRANCH  13  15
ENDBRANCH   8  11
BRANCH   7  27
HETATM   27  O   UNL     1       5.903   5.883  23.153  0.00  0.00    -0.360 OA
HETATM   28  H   UNL     1       6.591   6.569  23.168  0.00  0.00     0.217 HD
ENDBRANCH   7  27
BRANCH   1  29
HETATM   29  C   UNL     1       0.199   7.400  26.534  0.00  0.00     0.036 C 
HETATM   30  C   UNL     1      -0.329   8.818  26.776  0.00  0.00     0.016 C 
BRANCH  29  31
HETATM   31  C   UNL     1      -0.355   6.429  27.593  0.00  0.00     0.006 C 
HETATM   32  C   UNL     1      -0.888   5.132  26.999  0.00  0.00     0.006 C 
ENDBRANCH  29  31
ENDBRANCH   1  29
TORSDOF 6
ENDMDL
MODEL 8
REMARK VINA RESULT:    -6.452      3.086      5.391
REMARK INTER + INTRA:          -9.543
REMARK INTER:                  -8.374
REMARK INTRA:                  -1.169
REMARK UNBOUND:                -1.016
REMARK  6 active torsions:
REMARK  status: ('A' for Active; 'I' for Inactive)
REMARK    1  A    between atoms: C_2  and  C_3 
REMARK    2  A    between atoms: C_3  and  C_5 
REMARK    3  A    between atoms: C_11  and  O_12 
REMARK    4  A    between atoms: C_13  and  C_14 
REMARK       I    between atoms: C_14  and  N_16 
REMARK    5  A    between atoms: N_16  and  C_18 
REMARK    6  A    between atoms: C_21  and  N_22 
ROOT
HETATM    1  C   UNL     1       1.083   2.915  14.850  0.00  0.00     0.071 A 
HETATM    2  N   UNL     1       0.597   3.248  13.644  0.00  0.00    -0.178 NA
HETATM    3  N   UNL     1       0.526   4.587  13.682  0.00  0.00    -0.277 N 
HETATM    4  H   UNL     1       0.169   5.069  12.862  0.00  0.00     0.189 HD
HETATM    5  C   UNL     1       0.939   5.138  14.863  0.00  0.00     0.065 A 
HETATM    6  C   UNL     1       0.968   6.462  15.310  0.00  0.00     0.069 A 
HETATM    7  C   UNL     1       1.409   6.695  16.629  0.00  0.00     0.083 A 
HETATM    8  C   UNL     1       1.888   5.662  17.443  0.00  0.00     0.066 A 
HETATM    9  C   UNL     1       1.834   4.335  16.941  0.00  0.00     0.035 A 
HETATM   10  C   UNL     1       1.339   4.065  15.650  0.00  0.00     0.020 A 
ENDROOT
BRANCH   8  11
HETATM   11  C   UNL     1       2.325   5.764  18.878  0.00  0.00     0.260 C 
HETATM   12  O   UNL     1       1.436   5.454  19.682  0.00  0.00    -0.267 OA
HETATM   13  N   UNL     1       3.630   6.136  19.290  0.00  0.00    -0.318 N 
HETATM   14  C   UNL     1       4.648   6.671  18.393  0.00  0.00     0.159 C 
BRANCH  13  15
HETATM   15  C   UNL     1       3.987   6.084  20.691  0.00  0.00     0.037 A 
HETATM   16  C   UNL     1       4.537   4.934  21.260  0.00  0.00     0.032 A 
HETATM   17  C   UNL     1       4.843   4.869  22.628  0.00  0.00     0.031 A 
HETATM   18  C   UNL     1       4.613   5.940  23.499  0.00  0.00     0.030 A 
HETATM   19  C   UNL     1       4.130   7.114  22.908  0.00  0.00     0.031 A 
HETATM   20  C   UNL     1       3.826   7.191  21.534  0.00  0.00     0.032 A 
BRANCH  18  21
HETATM   21  N   UNL     1       4.805   5.825  24.857  0.00  0.00    -0.377 N 
HETATM   22  C   UNL     1       4.571   6.913  25.817  0.00  0.00     0.149 C 
HETATM   23  C   UNL     1       3.750   6.388  27.007  0.00  0.00     0.187 C 
HETATM   24  O   UNL     1       4.372   5.245  27.621  0.00  0.00    -0.388 OA
HETATM   25  C   UNL     1       4.513   4.184  26.662  0.00  0.00     0.187 C 
HETATM   26  C   UNL     1       5.378   4.611  25.464  0.00  0.00     0.149 C 
ENDBRANCH  18  21
ENDBRANCH  13  15
ENDBRANCH   8  11
BRANCH   7  27
HETATM   27  O   UNL     1       1.286   7.975  17.098  0.00  0.00    -0.360 OA
HETATM   28  H   UNL     1       1.398   8.603  16.364  0.00  0.00     0.217 HD
ENDBRANCH   7  27
BRANCH   1  29
HETATM   29  C   UNL     1       1.270   1.451  15.173  0.00  0.00     0.036 C 
HETATM   30  C   UNL     1       0.457   1.045  16.408  0.00  0.00     0.016 C 
BRANCH  29  31
HETATM   31  C   UNL     1       2.747   1.054  15.344  0.00  0.00     0.006 C 
HETATM   32  C   UNL     1       3.162   0.896  16.801  0.00  0.00     0.006 C 
ENDBRANCH  29  31
ENDBRANCH   1  29
TORSDOF 6
ENDMDL
MODEL 9
REMARK VINA RESULT:    -6.325      2.099      3.265
REMARK INTER + INTRA:          -9.375
REMARK INTER:                  -8.359
REMARK INTRA:                  -1.016
REMARK UNBOUND:                -1.016
REMARK  6 active torsions:
REMARK  status: ('A' for Active; 'I' for Inactive)
REMARK    1  A    between atoms: C_2  and  C_3 
REMARK    2  A    between atoms: C_3  and  C_5 
REMARK    3  A    between atoms: C_11  and  O_12 
REMARK    4  A    between atoms: C_13  and  C_14 
REMARK       I    between atoms: C_14  and  N_16 
REMARK    5  A    between atoms: N_16  and  C_18 
REMARK    6  A    between atoms: C_21  and  N_22 
ROOT
HETATM    1  C   UNL     1       3.509   6.440  19.985  0.00  0.00     0.071 A 
HETATM    2  N   UNL     1       3.879   7.156  18.911  0.00  0.00    -0.178 NA
HETATM    3  N   UNL     1       4.272   8.331  19.425  0.00  0.00    -0.277 N 
HETATM    4  H   UNL     1       4.592   9.050  18.782  0.00  0.00     0.189 HD
HETATM    5  C   UNL     1       4.169   8.412  20.786  0.00  0.00     0.065 A 
HETATM    6  C   UNL     1       4.421   9.459  21.675  0.00  0.00     0.069 A 
HETATM    7  C   UNL     1       4.156   9.233  23.041  0.00  0.00     0.083 A 
HETATM    8  C   UNL     1       3.741   7.984  23.518  0.00  0.00     0.066 A 
HETATM    9  C   UNL     1       3.497   6.955  22.571  0.00  0.00     0.035 A 
HETATM   10  C   UNL     1       3.693   7.172  21.193  0.00  0.00     0.020 A 
ENDROOT
BRANCH   8  11
HETATM   11  C   UNL     1       3.367   7.628  24.930  0.00  0.00     0.260 C 
HETATM   12  O   UNL     1       4.231   6.957  25.509  0.00  0.00    -0.267 OA
HETATM   13  N   UNL     1       2.169   8.043  25.566  0.00  0.00    -0.318 N 
HETATM   14  C   UNL     1       1.056   8.682  24.874  0.00  0.00     0.159 C 
BRANCH  13  15
HETATM   15  C   UNL     1       1.958   7.751  26.968  0.00  0.00     0.037 A 
HETATM   16  C   UNL     1       2.280   8.679  27.960  0.00  0.00     0.032 A 
HETATM   17  C   UNL     1       2.116   8.381  29.321  0.00  0.00     0.031 A 
HETATM   18  C   UNL     1       1.629   7.145  29.764  0.00  0.00     0.030 A 
HETATM   19  C   UNL     1       1.241   6.248  28.761  0.00  0.00     0.031 A 
HETATM   20  C   UNL     1       1.395   6.541  27.393  0.00  0.00     0.032 A 
BRANCH  18  21
HETATM   21  N   UNL     1       1.585   6.819  31.101  0.00  0.00    -0.377 N 
HETATM   22  C   UNL     1       2.403   5.766  31.720  0.00  0.00     0.149 C 
HETATM   23  C   UNL     1       3.051   6.301  33.008  0.00  0.00     0.187 C 
HETATM   24  O   UNL     1       2.070   6.832  33.916  0.00  0.00    -0.388 OA
HETATM   25  C   UNL     1       1.346   7.905  33.292  0.00  0.00     0.187 C 
HETATM   26  C   UNL     1       0.614   7.435  32.022  0.00  0.00     0.149 C 
ENDBRANCH  18  21
ENDBRANCH  13  15
ENDBRANCH   8  11
BRANCH   7  27
HETATM   27  O   UNL     1       4.264  10.314  23.873  0.00  0.00    -0.360 OA
HETATM   28  H   UNL     1       4.341  10.011  24.794  0.00  0.00     0.217 HD
ENDBRANCH   7  27
BRANCH   1  29
HETATM   29  C   UNL     1       2.972   5.045  19.771  0.00  0.00     0.036 C 
HETATM   30  C   UNL     1       3.114   4.610  18.308  0.00  0.00     0.016 C 
BRANCH  29  31
HETATM   31  C   UNL     1       1.517   4.879  20.244  0.00  0.00     0.006 C 
HETATM   32  C   UNL     1       0.493   5.209  19.166  0.00  0.00     0.006 C 
ENDBRANCH  29  31
ENDBRANCH   1  29
TORSDOF 6
ENDMDL
