MODEL 1
REMARK VINA RESULT:    -7.525      0.000      0.000
REMARK INTER + INTRA:         -10.679
REMARK INTER:                  -9.988
REMARK INTRA:                  -0.691
REMARK UNBOUND:                -0.734
REMARK  6 active torsions:
REMARK  status: ('A' for Active; 'I' for Inactive)
REMARK    1  A    between atoms: O_2  and  C_3 
REMARK    2  A    between atoms: C_3  and  C_4 
REMARK    3  A    between atoms: C_11  and  C_15 
REMARK    4  A    between atoms: C_12  and  O_14 
REMARK       I    between atoms: C_15  and  N_17 
REMARK    5  A    between atoms: N_17  and  C_19 
REMARK    6  A    between atoms: C_22  and  N_25 
ROOT
HETATM    1  C   UNL     1      -2.718  13.017  23.517  0.00  0.00     0.260 C 
HETATM    2  O   UNL     1      -2.946  11.891  23.064  0.00  0.00    -0.267 OA
HETATM    3  N   UNL     1      -2.242  13.230  24.833  0.00  0.00    -0.318 N 
HETATM    4  C   UNL     1      -2.127  14.538  25.480  0.00  0.00     0.159 C 
ENDROOT
BRANCH   1   5
HETATM    5  C   UNL     1      -2.992  14.120  22.544  0.00  0.00     0.066 A 
HETATM    6  C   UNL     1      -1.854  14.871  22.160  0.00  0.00     0.035 A 
HETATM    7  C   UNL     1      -1.958  15.869  21.165  0.00  0.00     0.022 A 
HETATM    8  C   UNL     1      -1.067  16.733  20.465  0.00  0.00     0.090 A 
HETATM    9  C   UNL     1      -3.211  16.140  20.630  0.00  0.00     0.065 A 
HETATM   10  N   UNL     1      -1.727  17.540  19.620  0.00  0.00    -0.176 NA
HETATM   11  N   UNL     1      -3.006  17.147  19.729  0.00  0.00    -0.277 N 
HETATM   12  H   UNL     1      -3.698  17.608  19.149  0.00  0.00     0.189 HD
HETATM   13  C   UNL     1      -4.359  15.428  20.981  0.00  0.00     0.069 A 
HETATM   14  C   UNL     1      -4.203  14.367  21.887  0.00  0.00     0.083 A 
BRANCH   8  15
HETATM   15  C   UNL     1       0.427  16.803  20.572  0.00  0.00     0.228 C 
BRANCH  15  16
HETATM   16  O   UNL     1       0.850  17.298  21.850  0.00  0.00    -0.390 OA
HETATM   17  C   UNL     1       2.214  16.985  22.103  0.00  0.00     0.201 C 
ENDBRANCH  15  16
ENDBRANCH   8  15
BRANCH  14  18
HETATM   18  O   UNL     1      -5.301  13.556  21.991  0.00  0.00    -0.360 OA
HETATM   19  H   UNL     1      -5.429  13.369  22.940  0.00  0.00     0.217 HD
ENDBRANCH  14  18
ENDBRANCH   1   5
BRANCH   3  20
HETATM   20  C   UNL     1      -1.859  12.092  25.639  0.00  0.00     0.037 A 
HETATM   21  C   UNL     1      -2.620  11.690  26.743  0.00  0.00     0.032 A 
HETATM   22  C   UNL     1      -2.249  10.591  27.535  0.00  0.00     0.031 A 
HETATM   23  C   UNL     1      -1.099   9.845  27.269  0.00  0.00     0.030 A 
HETATM   24  C   UNL     1      -0.359  10.234  26.143  0.00  0.00     0.031 A 
HETATM   25  C   UNL     1      -0.732  11.323  25.334  0.00  0.00     0.032 A 
BRANCH  23  26
HETATM   26  N   UNL     1      -0.725   8.747  28.017  0.00  0.00    -0.377 N 
HETATM   27  C   UNL     1      -0.101   8.857  29.345  0.00  0.00     0.149 C 
HETATM   28  C   UNL     1      -0.602   7.687  30.212  0.00  0.00     0.187 C 
HETATM   29  O   UNL     1      -0.342   6.409  29.600  0.00  0.00    -0.388 OA
HETATM   30  C   UNL     1      -0.965   6.335  28.305  0.00  0.00     0.187 C 
HETATM   31  C   UNL     1      -0.455   7.447  27.375  0.00  0.00     0.149 C 
ENDBRANCH  23  26
ENDBRANCH   3  20
TORSDOF 6
ENDMDL
MODEL 2
REMARK VINA RESULT:    -7.347      0.594      1.386
REMARK INTER + INTRA:         -10.444
REMARK INTER:                  -9.703
REMARK INTRA:                  -0.741
REMARK UNBOUND:                -0.734
REMARK  6 active torsions:
REMARK  status: ('A' for Active; 'I' for Inactive)
REMARK    1  A    between atoms: O_2  and  C_3 
REMARK    2  A    between atoms: C_3  and  C_4 
REMARK    3  A    between atoms: C_11  and  C_15 
REMARK    4  A    between atoms: C_12  and  O_14 
REMARK       I    between atoms: C_15  and  N_17 
REMARK    5  A    between atoms: N_17  and  C_19 
REMARK    6  A    between atoms: C_22  and  N_25 
ROOT
HETATM    1  C   UNL     1      -2.839  12.751  23.609  0.00  0.00     0.260 C 
HETATM    2  O   UNL     1      -3.090  11.628  23.161  0.00  0.00    -0.267 OA
HETATM    3  N   UNL     1      -2.289  12.954  24.897  0.00  0.00    -0.318 N 
HETATM    4  C   UNL     1      -2.141  14.258  25.547  0.00  0.00     0.159 C 
ENDROOT
BRANCH   1   5
HETATM    5  C   UNL     1      -3.173  13.860  22.663  0.00  0.00     0.066 A 
HETATM    6  C   UNL     1      -2.073  14.669  22.282  0.00  0.00     0.035 A 
HETATM    7  C   UNL     1      -2.232  15.681  21.310  0.00  0.00     0.022 A 
HETATM    8  C   UNL     1      -1.387  16.597  20.618  0.00  0.00     0.090 A 
HETATM    9  C   UNL     1      -3.502  15.908  20.795  0.00  0.00     0.065 A 
HETATM   10  N   UNL     1      -2.092  17.392  19.797  0.00  0.00    -0.176 NA
HETATM   11  N   UNL     1      -3.352  16.942  19.913  0.00  0.00    -0.277 N 
HETATM   12  H   UNL     1      -4.070  17.384  19.351  0.00  0.00     0.189 HD
HETATM   13  C   UNL     1      -4.614  15.140  21.143  0.00  0.00     0.069 A 
HETATM   14  C   UNL     1      -4.401  14.068  22.025  0.00  0.00     0.083 A 
BRANCH   8  15
HETATM   15  C   UNL     1       0.103  16.730  20.710  0.00  0.00     0.228 C 
BRANCH  15  16
HETATM   16  O   UNL     1       0.511  17.356  21.934  0.00  0.00    -0.390 OA
HETATM   17  C   UNL     1       1.234  16.455  22.763  0.00  0.00     0.201 C 
ENDBRANCH  15  16
ENDBRANCH   8  15
BRANCH  14  18
HETATM   18  O   UNL     1      -5.462  13.209  22.124  0.00  0.00    -0.360 OA
HETATM   19  H   UNL     1      -5.316  12.666  22.922  0.00  0.00     0.217 HD
ENDBRANCH  14  18
ENDBRANCH   1   5
BRANCH   3  20
HETATM   20  C   UNL     1      -1.856  11.812  25.670  0.00  0.00     0.037 A 
HETATM   21  C   UNL     1      -0.696  11.103  25.338  0.00  0.00     0.032 A 
HETATM   22  C   UNL     1      -0.274   9.987  26.081  0.00  0.00     0.031 A 
HETATM   23  C   UNL     1      -0.992   9.521  27.183  0.00  0.00     0.030 A 
HETATM   24  C   UNL     1      -2.136  10.255  27.529  0.00  0.00     0.031 A 
HETATM   25  C   UNL     1      -2.556  11.384  26.802  0.00  0.00     0.032 A 
BRANCH  23  26
HETATM   26  N   UNL     1      -0.586   8.442  27.943  0.00  0.00    -0.377 N 
HETATM   27  C   UNL     1      -0.940   7.052  27.613  0.00  0.00     0.149 C 
HETATM   28  C   UNL     1       0.248   6.149  27.996  0.00  0.00     0.187 C 
HETATM   29  O   UNL     1       0.617   6.296  29.381  0.00  0.00    -0.388 OA
HETATM   30  C   UNL     1       0.955   7.665  29.668  0.00  0.00     0.187 C 
HETATM   31  C   UNL     1      -0.219   8.608  29.361  0.00  0.00     0.149 C 
ENDBRANCH  23  26
ENDBRANCH   3  20
TORSDOF 6
ENDMDL
MODEL 3
REMARK VINA RESULT:    -7.321      1.403      1.861
REMARK INTER + INTRA:         -10.409
REMARK INTER:                  -9.947
REMARK INTRA:                  -0.462
REMARK UNBOUND:                -0.734
REMARK  6 active torsions:
REMARK  status: ('A' for Active; 'I' for Inactive)
REMARK    1  A    between atoms: O_2  and  C_3 
REMARK    2  A    between atoms: C_3  and  C_4 
REMARK    3  A    between atoms: C_11  and  C_15 
REMARK    4  A    between atoms: C_12  and  O_14 
REMARK       I    between atoms: C_15  and  N_17 
REMARK    5  A    between atoms: N_17  and  C_19 
REMARK    6  A    between atoms: C_22  and  N_25 
ROOT
HETATM    1  C   UNL     1      -2.578  12.561  22.849  0.00  0.00     0.260 C 
HETATM    2  O   UNL     1      -3.131  11.569  22.363  0.00  0.00    -0.267 OA
HETATM    3  N   UNL     1      -1.727  12.485  23.977  0.00  0.00    -0.318 N 
HETATM    4  C   UNL     1      -1.193  13.640  24.701  0.00  0.00     0.159 C 
ENDROOT
BRANCH   1   5
HETATM    5  C   UNL     1      -2.896  13.834  22.131  0.00  0.00     0.066 A 
HETATM    6  C   UNL     1      -1.767  14.611  21.769  0.00  0.00     0.035 A 
HETATM    7  C   UNL     1      -1.923  15.780  20.991  0.00  0.00     0.022 A 
HETATM    8  C   UNL     1      -1.066  16.733  20.368  0.00  0.00     0.090 A 
HETATM    9  C   UNL     1      -3.209  16.184  20.656  0.00  0.00     0.065 A 
HETATM   10  N   UNL     1      -1.769  17.704  19.763  0.00  0.00    -0.176 NA
HETATM   11  N   UNL     1      -3.048  17.336  19.939  0.00  0.00    -0.277 N 
HETATM   12  H   UNL     1      -3.772  17.918  19.533  0.00  0.00     0.189 HD
HETATM   13  C   UNL     1      -4.350  15.453  20.995  0.00  0.00     0.069 A 
HETATM   14  C   UNL     1      -4.154  14.236  21.668  0.00  0.00     0.083 A 
BRANCH   8  15
HETATM   15  C   UNL     1       0.432  16.738  20.321  0.00  0.00     0.228 C 
BRANCH  15  16
HETATM   16  O   UNL     1       1.007  17.094  21.586  0.00  0.00    -0.390 OA
HETATM   17  C   UNL     1       2.400  16.811  21.621  0.00  0.00     0.201 C 
ENDBRANCH  15  16
ENDBRANCH   8  15
BRANCH  14  18
HETATM   18  O   UNL     1      -5.274  13.454  21.741  0.00  0.00    -0.360 OA
HETATM   19  H   UNL     1      -5.006  12.548  21.496  0.00  0.00     0.217 HD
ENDBRANCH  14  18
ENDBRANCH   1   5
BRANCH   3  20
HETATM   20  C   UNL     1      -1.359  11.188  24.500  0.00  0.00     0.037 A 
HETATM   21  C   UNL     1      -1.762  10.775  25.776  0.00  0.00     0.032 A 
HETATM   22  C   UNL     1      -1.401   9.519  26.293  0.00  0.00     0.031 A 
HETATM   23  C   UNL     1      -0.618   8.620  25.567  0.00  0.00     0.030 A 
HETATM   24  C   UNL     1      -0.245   9.028  24.278  0.00  0.00     0.031 A 
HETATM   25  C   UNL     1      -0.616  10.276  23.745  0.00  0.00     0.032 A 
BRANCH  23  26
HETATM   26  N   UNL     1      -0.270   7.372  26.043  0.00  0.00    -0.377 N 
HETATM   27  C   UNL     1      -0.222   6.174  25.190  0.00  0.00     0.149 C 
HETATM   28  C   UNL     1       0.937   5.283  25.676  0.00  0.00     0.187 C 
HETATM   29  O   UNL     1       0.812   4.945  27.071  0.00  0.00    -0.388 OA
HETATM   30  C   UNL     1       0.767   6.138  27.875  0.00  0.00     0.187 C 
HETATM   31  C   UNL     1      -0.411   7.039  27.473  0.00  0.00     0.149 C 
ENDBRANCH  23  26
ENDBRANCH   3  20
TORSDOF 6
ENDMDL
MODEL 4
REMARK VINA RESULT:    -7.216      1.552      2.041
REMARK INTER + INTRA:         -10.271
REMARK INTER:                  -9.540
REMARK INTRA:                  -0.731
REMARK UNBOUND:                -0.734
REMARK  6 active torsions:
REMARK  status: ('A' for Active; 'I' for Inactive)
REMARK    1  A    between atoms: O_2  and  C_3 
REMARK    2  A    between atoms: C_3  and  C_4 
REMARK    3  A    between atoms: C_11  and  C_15 
REMARK    4  A    between atoms: C_12  and  O_14 
REMARK       I    between atoms: C_15  and  N_17 
REMARK    5  A    between atoms: N_17  and  C_19 
REMARK    6  A    between atoms: C_22  and  N_25 
ROOT
HETATM    1  C   UNL     1      -1.888  13.080  23.977  0.00  0.00     0.260 C 
HETATM    2  O   UNL     1      -1.565  13.679  25.008  0.00  0.00    -0.267 OA
HETATM    3  N   UNL     1      -1.545  11.727  23.741  0.00  0.00    -0.318 N 
HETATM    4  C   UNL     1      -1.742  11.023  22.472  0.00  0.00     0.159 C 
ENDROOT
BRANCH   1   5
HETATM    5  C   UNL     1      -2.669  13.919  23.017  0.00  0.00     0.066 A 
HETATM    6  C   UNL     1      -1.905  14.876  22.305  0.00  0.00     0.035 A 
HETATM    7  C   UNL     1      -2.501  15.657  21.289  0.00  0.00     0.022 A 
HETATM    8  C   UNL     1      -2.067  16.611  20.324  0.00  0.00     0.090 A 
HETATM    9  C   UNL     1      -3.864  15.513  21.061  0.00  0.00     0.065 A 
HETATM   10  N   UNL     1      -3.097  17.087  19.606  0.00  0.00    -0.176 NA
HETATM   11  N   UNL     1      -4.155  16.396  20.059  0.00  0.00    -0.277 N 
HETATM   12  H   UNL     1      -5.058  16.572  19.633  0.00  0.00     0.189 HD
HETATM   13  C   UNL     1      -4.657  14.586  21.740  0.00  0.00     0.069 A 
HETATM   14  C   UNL     1      -4.012  13.746  22.662  0.00  0.00     0.083 A 
BRANCH   8  15
HETATM   15  C   UNL     1      -0.670  17.081  20.053  0.00  0.00     0.228 C 
BRANCH  15  16
HETATM   16  O   UNL     1       0.004  17.482  21.254  0.00  0.00    -0.390 OA
HETATM   17  C   UNL     1       1.335  16.984  21.294  0.00  0.00     0.201 C 
ENDBRANCH  15  16
ENDBRANCH   8  15
BRANCH  14  18
HETATM   18  O   UNL     1      -4.782  12.702  23.098  0.00  0.00    -0.360 OA
HETATM   19  H   UNL     1      -5.398  13.061  23.765  0.00  0.00     0.217 HD
ENDBRANCH  14  18
ENDBRANCH   1   5
BRANCH   3  20
HETATM   20  C   UNL     1      -0.927  10.959  24.799  0.00  0.00     0.037 A 
HETATM   21  C   UNL     1      -1.659  10.527  25.911  0.00  0.00     0.032 A 
HETATM   22  C   UNL     1      -1.062   9.787  26.946  0.00  0.00     0.031 A 
HETATM   23  C   UNL     1       0.292   9.448  26.924  0.00  0.00     0.030 A 
HETATM   24  C   UNL     1       1.011   9.857  25.792  0.00  0.00     0.031 A 
HETATM   25  C   UNL     1       0.419  10.583  24.742  0.00  0.00     0.032 A 
BRANCH  23  26
HETATM   26  N   UNL     1       0.896   8.703  27.916  0.00  0.00    -0.377 N 
HETATM   27  C   UNL     1       1.754   7.540  27.635  0.00  0.00     0.149 C 
HETATM   28  C   UNL     1       2.880   7.507  28.685  0.00  0.00     0.187 C 
HETATM   29  O   UNL     1       2.366   7.483  30.030  0.00  0.00    -0.388 OA
HETATM   30  C   UNL     1       1.533   8.632  30.271  0.00  0.00     0.187 C 
HETATM   31  C   UNL     1       0.353   8.682  29.287  0.00  0.00     0.149 C 
ENDBRANCH  23  26
ENDBRANCH   3  20
TORSDOF 6
ENDMDL
MODEL 5
REMARK VINA RESULT:    -7.184      2.084      2.478
REMARK INTER + INTRA:         -10.229
REMARK INTER:                  -9.307
REMARK INTRA:                  -0.922
REMARK UNBOUND:                -0.734
REMARK  6 active torsions:
REMARK  status: ('A' for Active; 'I' for Inactive)
REMARK    1  A    between atoms: O_2  and  C_3 
REMARK    2  A    between atoms: C_3  and  C_4 
REMARK    3  A    between atoms: C_11  and  C_15 
REMARK    4  A    between atoms: C_12  and  O_14 
REMARK       I    between atoms: C_15  and  N_17 
REMARK    5  A    between atoms: N_17  and  C_19 
REMARK    6  A    between atoms: C_22  and  N_25 
ROOT
HETATM    1  C   UNL     1      -1.176  12.844  22.426  0.00  0.00     0.260 C 
HETATM    2  O   UNL     1      -1.424  11.893  21.677  0.00  0.00    -0.267 OA
HETATM    3  N   UNL     1      -0.742  12.672  23.762  0.00  0.00    -0.318 N 
HETATM    4  C   UNL     1      -0.608  13.750  24.744  0.00  0.00     0.159 C 
ENDROOT
BRANCH   1   5
HETATM    5  C   UNL     1      -1.378  14.180  21.783  0.00  0.00     0.066 A 
HETATM    6  C   UNL     1      -0.186  14.887  21.493  0.00  0.00     0.035 A 
HETATM    7  C   UNL     1      -0.233  16.110  20.787  0.00  0.00     0.022 A 
HETATM    8  C   UNL     1       0.708  17.031  20.242  0.00  0.00     0.090 A 
HETATM    9  C   UNL     1      -1.476  16.632  20.453  0.00  0.00     0.065 A 
HETATM   10  N   UNL     1       0.097  18.089  19.686  0.00  0.00    -0.176 NA
HETATM   11  N   UNL     1      -1.211  17.810  19.813  0.00  0.00    -0.277 N 
HETATM   12  H   UNL     1      -1.879  18.469  19.430  0.00  0.00     0.189 HD
HETATM   13  C   UNL     1      -2.677  15.972  20.722  0.00  0.00     0.069 A 
HETATM   14  C   UNL     1      -2.591  14.705  21.322  0.00  0.00     0.083 A 
BRANCH   8  15
HETATM   15  C   UNL     1       2.203  16.923  20.225  0.00  0.00     0.228 C 
BRANCH  15  16
HETATM   16  O   UNL     1       2.777  17.209  21.508  0.00  0.00    -0.390 OA
HETATM   17  C   UNL     1       3.370  16.051  22.083  0.00  0.00     0.201 C 
ENDBRANCH  15  16
ENDBRANCH   8  15
BRANCH  14  18
HETATM   18  O   UNL     1      -3.769  14.008  21.323  0.00  0.00    -0.360 OA
HETATM   19  H   UNL     1      -3.728  13.381  22.070  0.00  0.00     0.217 HD
ENDBRANCH  14  18
ENDBRANCH   1   5
BRANCH   3  20
HETATM   20  C   UNL     1      -0.426  11.343  24.237  0.00  0.00     0.037 A 
HETATM   21  C   UNL     1       0.875  10.832  24.162  0.00  0.00     0.032 A 
HETATM   22  C   UNL     1       1.187   9.539  24.615  0.00  0.00     0.031 A 
HETATM   23  C   UNL     1       0.218   8.693  25.157  0.00  0.00     0.030 A 
HETATM   24  C   UNL     1      -1.076   9.224  25.258  0.00  0.00     0.031 A 
HETATM   25  C   UNL     1      -1.395  10.523  24.823  0.00  0.00     0.032 A 
BRANCH  23  26
HETATM   26  N   UNL     1       0.504   7.428  25.630  0.00  0.00    -0.377 N 
HETATM   27  C   UNL     1       1.825   7.049  26.154  0.00  0.00     0.149 C 
HETATM   28  C   UNL     1       1.617   6.053  27.311  0.00  0.00     0.187 C 
HETATM   29  O   UNL     1       0.849   4.904  26.906  0.00  0.00    -0.388 OA
HETATM   30  C   UNL     1      -0.435   5.311  26.399  0.00  0.00     0.187 C 
HETATM   31  C   UNL     1      -0.287   6.260  25.200  0.00  0.00     0.149 C 
ENDBRANCH  23  26
ENDBRANCH   3  20
TORSDOF 6
ENDMDL
MODEL 6
REMARK VINA RESULT:    -7.096      6.416      9.614
REMARK INTER + INTRA:         -10.112
REMARK INTER:                  -9.235
REMARK INTRA:                  -0.876
REMARK UNBOUND:                -0.734
REMARK  6 active torsions:
REMARK  status: ('A' for Active; 'I' for Inactive)
REMARK    1  A    between atoms: O_2  and  C_3 
REMARK    2  A    between atoms: C_3  and  C_4 
REMARK    3  A    between atoms: C_11  and  C_15 
REMARK    4  A    between atoms: C_12  and  O_14 
REMARK       I    between atoms: C_15  and  N_17 
REMARK    5  A    between atoms: N_17  and  C_19 
REMARK    6  A    between atoms: C_22  and  N_25 
ROOT
HETATM    1  C   UNL     1       3.169   7.881  24.333  0.00  0.00     0.260 C 
HETATM    2  O   UNL     1       3.473   8.920  24.928  0.00  0.00    -0.267 OA
HETATM    3  N   UNL     1       1.831   7.437  24.205  0.00  0.00    -0.318 N 
HETATM    4  C   UNL     1       1.430   6.133  23.673  0.00  0.00     0.159 C 
ENDROOT
BRANCH   1   5
HETATM    5  C   UNL     1       4.346   7.150  23.768  0.00  0.00     0.066 A 
HETATM    6  C   UNL     1       4.435   7.169  22.354  0.00  0.00     0.035 A 
HETATM    7  C   UNL     1       5.556   6.610  21.701  0.00  0.00     0.022 A 
HETATM    8  C   UNL     1       6.041   6.523  20.364  0.00  0.00     0.090 A 
HETATM    9  C   UNL     1       6.525   5.982  22.473  0.00  0.00     0.065 A 
HETATM   10  N   UNL     1       7.183   5.820  20.299  0.00  0.00    -0.176 NA
HETATM   11  N   UNL     1       7.455   5.526  21.581  0.00  0.00    -0.277 N 
HETATM   12  H   UNL     1       8.304   5.012  21.782  0.00  0.00     0.189 HD
HETATM   13  C   UNL     1       6.476   5.936  23.868  0.00  0.00     0.069 A 
HETATM   14  C   UNL     1       5.409   6.599  24.493  0.00  0.00     0.083 A 
BRANCH   8  15
HETATM   15  C   UNL     1       5.442   7.114  19.123  0.00  0.00     0.228 C 
BRANCH  15  16
HETATM   16  O   UNL     1       4.267   6.405  18.705  0.00  0.00    -0.390 OA
HETATM   17  C   UNL     1       4.525   5.598  17.564  0.00  0.00     0.201 C 
ENDBRANCH  15  16
ENDBRANCH   8  15
BRANCH  14  18
HETATM   18  O   UNL     1       5.555   6.738  25.847  0.00  0.00    -0.360 OA
HETATM   19  H   UNL     1       5.886   5.884  26.186  0.00  0.00     0.217 HD
ENDBRANCH  14  18
ENDBRANCH   1   5
BRANCH   3  20
HETATM   20  C   UNL     1       0.755   8.295  24.649  0.00  0.00     0.037 A 
HETATM   21  C   UNL     1       0.164   9.227  23.788  0.00  0.00     0.032 A 
HETATM   22  C   UNL     1      -0.877  10.069  24.215  0.00  0.00     0.031 A 
HETATM   23  C   UNL     1      -1.372  10.027  25.520  0.00  0.00     0.030 A 
HETATM   24  C   UNL     1      -0.796   9.069  26.367  0.00  0.00     0.031 A 
HETATM   25  C   UNL     1       0.235   8.210  25.944  0.00  0.00     0.032 A 
BRANCH  23  26
HETATM   26  N   UNL     1      -2.408  10.827  25.957  0.00  0.00    -0.377 N 
HETATM   27  C   UNL     1      -2.616  12.202  25.477  0.00  0.00     0.149 C 
HETATM   28  C   UNL     1      -4.132  12.462  25.401  0.00  0.00     0.187 C 
HETATM   29  O   UNL     1      -4.786  12.228  26.663  0.00  0.00    -0.388 OA
HETATM   30  C   UNL     1      -4.562  10.876  27.102  0.00  0.00     0.187 C 
HETATM   31  C   UNL     1      -3.063  10.579  27.255  0.00  0.00     0.149 C 
ENDBRANCH  23  26
ENDBRANCH   3  20
TORSDOF 6
ENDMDL
MODEL 7
REMARK VINA RESULT:    -6.994      2.133      2.514
REMARK INTER + INTRA:          -9.977
REMARK INTER:                  -9.048
REMARK INTRA:                  -0.929
REMARK UNBOUND:                -0.734
REMARK  6 active torsions:
REMARK  status: ('A' for Active; 'I' for Inactive)
REMARK    1  A    between atoms: O_2  and  C_3 
REMARK    2  A    between atoms: C_3  and  C_4 
REMARK    3  A    between atoms: C_11  and  C_15 
REMARK    4  A    between atoms: C_12  and  O_14 
REMARK       I    between atoms: C_15  and  N_17 
REMARK    5  A    between atoms: N_17  and  C_19 
REMARK    6  A    between atoms: C_22  and  N_25 
ROOT
HETATM    1  C   UNL     1      -1.087  12.409  22.280  0.00  0.00     0.260 C 
HETATM    2  O   UNL     1      -0.737  11.518  21.500  0.00  0.00    -0.267 OA
HETATM    3  N   UNL     1      -1.066  12.247  23.686  0.00  0.00    -0.318 N 
HETATM    4  C   UNL     1      -1.635  13.195  24.646  0.00  0.00     0.159 C 
ENDROOT
BRANCH   1   5
HETATM    5  C   UNL     1      -1.530  13.663  21.594  0.00  0.00     0.066 A 
HETATM    6  C   UNL     1      -0.568  14.703  21.578  0.00  0.00     0.035 A 
HETATM    7  C   UNL     1      -0.819  15.898  20.868  0.00  0.00     0.022 A 
HETATM    8  C   UNL     1      -0.097  17.084  20.544  0.00  0.00     0.090 A 
HETATM    9  C   UNL     1      -2.055  16.054  20.253  0.00  0.00     0.065 A 
HETATM   10  N   UNL     1      -0.856  17.948  19.851  0.00  0.00    -0.176 NA
HETATM   11  N   UNL     1      -2.016  17.293  19.678  0.00  0.00    -0.277 N 
HETATM   12  H   UNL     1      -2.747  17.751  19.146  0.00  0.00     0.189 HD
HETATM   13  C   UNL     1      -3.033  15.058  20.246  0.00  0.00     0.069 A 
HETATM   14  C   UNL     1      -2.710  13.839  20.862  0.00  0.00     0.083 A 
BRANCH   8  15
HETATM   15  C   UNL     1       1.327  17.417  20.870  0.00  0.00     0.228 C 
BRANCH  15  16
HETATM   16  O   UNL     1       2.251  16.660  20.077  0.00  0.00    -0.390 OA
HETATM   17  C   UNL     1       3.085  15.842  20.888  0.00  0.00     0.201 C 
ENDBRANCH  15  16
ENDBRANCH   8  15
BRANCH  14  18
HETATM   18  O   UNL     1      -3.597  12.830  20.601  0.00  0.00    -0.360 OA
HETATM   19  H   UNL     1      -4.151  12.724  21.398  0.00  0.00     0.217 HD
ENDBRANCH  14  18
ENDBRANCH   1   5
BRANCH   3  20
HETATM   20  C   UNL     1      -0.473  11.056  24.252  0.00  0.00     0.037 A 
HETATM   21  C   UNL     1      -1.233   9.904  24.488  0.00  0.00     0.032 A 
HETATM   22  C   UNL     1      -0.664   8.746  25.045  0.00  0.00     0.031 A 
HETATM   23  C   UNL     1       0.685   8.684  25.399  0.00  0.00     0.030 A 
HETATM   24  C   UNL     1       1.446   9.830  25.130  0.00  0.00     0.031 A 
HETATM   25  C   UNL     1       0.890  10.988  24.557  0.00  0.00     0.032 A 
BRANCH  23  26
HETATM   26  N   UNL     1       1.273   7.551  25.925  0.00  0.00    -0.377 N 
HETATM   27  C   UNL     1       0.847   6.945  27.197  0.00  0.00     0.149 C 
HETATM   28  C   UNL     1       0.984   5.416  27.071  0.00  0.00     0.187 C 
HETATM   29  O   UNL     1       2.321   5.020  26.708  0.00  0.00    -0.388 OA
HETATM   30  C   UNL     1       2.705   5.630  25.462  0.00  0.00     0.187 C 
HETATM   31  C   UNL     1       2.645   7.163  25.549  0.00  0.00     0.149 C 
ENDBRANCH  23  26
ENDBRANCH   3  20
TORSDOF 6
ENDMDL
MODEL 8
REMARK VINA RESULT:    -6.845      1.842      3.641
REMARK INTER + INTRA:          -9.780
REMARK INTER:                  -8.943
REMARK INTRA:                  -0.837
REMARK UNBOUND:                -0.734
REMARK  6 active torsions:
REMARK  status: ('A' for Active; 'I' for Inactive)
REMARK    1  A    between atoms: O_2  and  C_3 
REMARK    2  A    between atoms: C_3  and  C_4 
REMARK    3  A    between atoms: C_11  and  C_15 
REMARK    4  A    between atoms: C_12  and  O_14 
REMARK       I    between atoms: C_15  and  N_17 
REMARK    5  A    between atoms: N_17  and  C_19 
REMARK    6  A    between atoms: C_22  and  N_25 
ROOT
HETATM    1  C   UNL     1       0.279  13.663  23.529  0.00  0.00     0.260 C 
HETATM    2  O   UNL     1       0.471  14.063  24.681  0.00  0.00    -0.267 OA
HETATM    3  N   UNL     1       0.179  12.289  23.203  0.00  0.00    -0.318 N 
HETATM    4  C   UNL     1       0.133  11.753  21.841  0.00  0.00     0.159 C 
ENDROOT
BRANCH   1   5
HETATM    5  C   UNL     1       0.164  14.766  22.524  0.00  0.00     0.066 A 
HETATM    6  C   UNL     1      -1.128  14.930  21.967  0.00  0.00     0.035 A 
HETATM    7  C   UNL     1      -1.397  16.005  21.090  0.00  0.00     0.022 A 
HETATM    8  C   UNL     1      -2.540  16.544  20.429  0.00  0.00     0.090 A 
HETATM    9  C   UNL     1      -0.350  16.845  20.734  0.00  0.00     0.065 A 
HETATM   10  N   UNL     1      -2.211  17.590  19.654  0.00  0.00    -0.176 NA
HETATM   11  N   UNL     1      -0.897  17.755  19.873  0.00  0.00    -0.277 N 
HETATM   12  H   UNL     1      -0.428  18.521  19.404  0.00  0.00     0.189 HD
HETATM   13  C   UNL     1       0.939  16.718  21.255  0.00  0.00     0.069 A 
HETATM   14  C   UNL     1       1.147  15.712  22.212  0.00  0.00     0.083 A 
BRANCH   8  15
HETATM   15  C   UNL     1      -3.964  16.090  20.528  0.00  0.00     0.228 C 
BRANCH  15  16
HETATM   16  O   UNL     1      -4.348  15.278  19.410  0.00  0.00    -0.390 OA
HETATM   17  C   UNL     1      -4.691  13.959  19.817  0.00  0.00     0.201 C 
ENDBRANCH  15  16
ENDBRANCH   8  15
BRANCH  14  18
HETATM   18  O   UNL     1       2.346  15.804  22.865  0.00  0.00    -0.360 OA
HETATM   19  H   UNL     1       3.046  15.723  22.190  0.00  0.00     0.217 HD
ENDBRANCH  14  18
ENDBRANCH   1   5
BRANCH   3  20
HETATM   20  C   UNL     1       0.146  11.311  24.267  0.00  0.00     0.037 A 
HETATM   21  C   UNL     1       1.318  10.715  24.748  0.00  0.00     0.032 A 
HETATM   22  C   UNL     1       1.292   9.758  25.776  0.00  0.00     0.031 A 
HETATM   23  C   UNL     1       0.097   9.344  26.369  0.00  0.00     0.030 A 
HETATM   24  C   UNL     1      -1.069   9.969  25.904  0.00  0.00     0.031 A 
HETATM   25  C   UNL     1      -1.052  10.940  24.887  0.00  0.00     0.032 A 
BRANCH  23  26
HETATM   26  N   UNL     1       0.047   8.424  27.396  0.00  0.00    -0.377 N 
HETATM   27  C   UNL     1       0.609   8.682  28.731  0.00  0.00     0.149 C 
HETATM   28  C   UNL     1      -0.295   7.998  29.774  0.00  0.00     0.187 C 
HETATM   29  O   UNL     1      -0.447   6.588  29.518  0.00  0.00    -0.388 OA
HETATM   30  C   UNL     1      -0.997   6.372  28.206  0.00  0.00     0.187 C 
HETATM   31  C   UNL     1      -0.101   6.983  27.117  0.00  0.00     0.149 C 
ENDBRANCH  23  26
ENDBRANCH   3  20
TORSDOF 6
ENDMDL
MODEL 9
REMARK VINA RESULT:    -6.822      1.955      3.660
REMARK INTER + INTRA:          -9.751
REMARK INTER:                  -9.016
REMARK INTRA:                  -0.734
REMARK UNBOUND:                -0.734
REMARK  6 active torsions:
REMARK  status: ('A' for Active; 'I' for Inactive)
REMARK    1  A    between atoms: O_2  and  C_3 
REMARK    2  A    between atoms: C_3  and  C_4 
REMARK    3  A    between atoms: C_11  and  C_15 
REMARK    4  A    between atoms: C_12  and  O_14 
REMARK       I    between atoms: C_15  and  N_17 
REMARK    5  A    between atoms: N_17  and  C_19 
REMARK    6  A    between atoms: C_22  and  N_25 
ROOT
HETATM    1  C   UNL     1      -0.551  13.396  23.568  0.00  0.00     0.260 C 
HETATM    2  O   UNL     1      -0.630  13.772  24.741  0.00  0.00    -0.267 OA
HETATM    3  N   UNL     1      -0.158  12.084  23.211  0.00  0.00    -0.318 N 
HETATM    4  C   UNL     1       0.126  11.637  21.845  0.00  0.00     0.159 C 
ENDROOT
BRANCH   1   5
HETATM    5  C   UNL     1      -0.909  14.455  22.574  0.00  0.00     0.066 A 
HETATM    6  C   UNL     1      -2.056  14.174  21.791  0.00  0.00     0.035 A 
HETATM    7  C   UNL     1      -2.564  15.139  20.894  0.00  0.00     0.022 A 
HETATM    8  C   UNL     1      -3.699  15.268  20.042  0.00  0.00     0.090 A 
HETATM    9  C   UNL     1      -1.872  16.335  20.749  0.00  0.00     0.065 A 
HETATM   10  N   UNL     1      -3.670  16.421  19.355  0.00  0.00    -0.176 NA
HETATM   11  N   UNL     1      -2.573  17.044  19.814  0.00  0.00    -0.277 N 
HETATM   12  H   UNL     1      -2.360  17.966  19.450  0.00  0.00     0.189 HD
HETATM   13  C   UNL     1      -0.736  16.653  21.496  0.00  0.00     0.069 A 
HETATM   14  C   UNL     1      -0.322  15.721  22.461  0.00  0.00     0.083 A 
BRANCH   8  15
HETATM   15  C   UNL     1      -4.840  14.311  19.871  0.00  0.00     0.228 C 
BRANCH  15  16
HETATM   16  O   UNL     1      -5.130  14.064  18.488  0.00  0.00    -0.390 OA
HETATM   17  C   UNL     1      -6.209  13.150  18.339  0.00  0.00     0.201 C 
ENDBRANCH  15  16
ENDBRANCH   8  15
BRANCH  14  18
HETATM   18  O   UNL     1       0.626  16.198  23.325  0.00  0.00    -0.360 OA
HETATM   19  H   UNL     1       0.326  15.976  24.227  0.00  0.00     0.217 HD
ENDBRANCH  14  18
ENDBRANCH   1   5
BRANCH   3  20
HETATM   20  C   UNL     1       0.014  11.090  24.247  0.00  0.00     0.037 A 
HETATM   21  C   UNL     1      -1.079  10.397  24.782  0.00  0.00     0.032 A 
HETATM   22  C   UNL     1      -0.920   9.436  25.794  0.00  0.00     0.031 A 
HETATM   23  C   UNL     1       0.333   9.126  26.327  0.00  0.00     0.030 A 
HETATM   24  C   UNL     1       1.426   9.801  25.764  0.00  0.00     0.031 A 
HETATM   25  C   UNL     1       1.279  10.752  24.738  0.00  0.00     0.032 A 
BRANCH  23  26
HETATM   26  N   UNL     1       0.519   8.170  27.304  0.00  0.00    -0.377 N 
HETATM   27  C   UNL     1       0.106   8.364  28.703  0.00  0.00     0.149 C 
HETATM   28  C   UNL     1      -0.376   7.009  29.256  0.00  0.00     0.187 C 
HETATM   29  O   UNL     1       0.628   5.984  29.129  0.00  0.00    -0.388 OA
HETATM   30  C   UNL     1       1.009   5.821  27.751  0.00  0.00     0.187 C 
HETATM   31  C   UNL     1       1.556   7.131  27.163  0.00  0.00     0.149 C 
ENDBRANCH  23  26
ENDBRANCH   3  20
TORSDOF 6
ENDMDL
