MODEL 1
REMARK VINA RESULT:    -8.516      0.000      0.000
REMARK INTER + INTRA:         -11.895
REMARK INTER:                 -10.872
REMARK INTRA:                  -1.023
REMARK UNBOUND:                -0.890
REMARK  5 active torsions:
REMARK  status: ('A' for Active; 'I' for Inactive)
REMARK    1  A    between atoms: N8_1  and  C24_2 
REMARK    2  A    between atoms: N8_1  and  C7_8 
REMARK    3  A    between atoms: C2_13  and  N1_14 
REMARK    4  A    between atoms: N1_14  and  C17_15 
REMARK    5  A    between atoms: C14_16  and  C13_19 
ROOT
ATOM      1  C17 FTA A   1       3.607  14.851  19.923  1.00  0.00     0.142 C 
ATOM      2  C14 FTA A   1       4.243  15.980  19.551  1.00  0.00     0.158 C 
ATOM      3  C18 FTA A   1       4.044  16.524  18.225  1.00  0.00     0.069 C 
ATOM      4  N21 FTA A   1       3.833  16.815  17.109  1.00  0.00    -0.197 NA
ENDROOT
BRANCH   2   5
ATOM      5  C13 FTA A   1       5.133  16.666  20.516  1.00  0.00     0.197 A 
ATOM      6  N15 FTA A   1       5.903  17.799  20.262  1.00  0.00    -0.093 NA
ATOM      7  N19 FTA A   1       6.620  18.084  21.417  1.00  0.00    -0.231 N 
ATOM      8  N20 FTA A   1       6.312  17.142  22.388  1.00  0.00    -0.017 NA
ATOM      9  H15 FTA A   1       7.277  18.869  21.534  1.00  0.00     0.200 HD
ATOM     10  N16 FTA A   1       5.381  16.269  21.835  1.00  0.00    -0.090 NA
ENDBRANCH   2   5
BRANCH   1  11
ATOM     11  N1  FTA A   1       4.331  13.832  20.425  1.00  0.00    -0.389 N 
ATOM     12  H11 FTA A   1       5.259  13.658  20.013  1.00  0.00     0.159 HD
BRANCH  11  13
ATOM     13  C2  FTA A   1       3.911  12.976  21.480  1.00  0.00     0.028 A 
ATOM     14  C4  FTA A   1       4.818  12.279  22.274  1.00  0.00     0.031 A 
ATOM     15  C6  FTA A   1       4.341  11.284  23.137  1.00  0.00     0.031 A 
ATOM     16  C7  FTA A   1       2.988  10.966  23.225  1.00  0.00     0.032 A 
ATOM     17  C5  FTA A   1       2.097  11.685  22.448  1.00  0.00     0.031 A 
ATOM     18  C3  FTA A   1       2.551  12.667  21.576  1.00  0.00     0.031 A 
BRANCH  16  19
ATOM     19  N8  FTA A   1       2.508   9.831  23.927  1.00  0.00    -0.356 N 
ATOM     20  H1  FTA A   1       2.268   9.958  24.921  1.00  0.00     0.166 HD
BRANCH  19  21
ATOM     21  C24 FTA A   1       2.329   8.529  23.371  1.00  0.00     0.032 A 
ATOM     22  C26 FTA A   1       3.353   7.611  23.342  1.00  0.00     0.029 A 
ATOM     23  C28 FTA A   1       3.169   6.437  22.638  1.00  0.00     0.002 A 
ATOM     24  C30 FTA A   1       1.984   6.137  21.988  1.00  0.00     0.000 A 
ATOM     25  C29 FTA A   1       0.943   7.026  22.042  1.00  0.00     0.002 A 
ATOM     26  C27 FTA A   1       1.128   8.218  22.751  1.00  0.00     0.029 A 
ENDBRANCH  19  21
ENDBRANCH  16  19
ENDBRANCH  11  13
ENDBRANCH   1  11
TORSDOF 5
ENDMDL
MODEL 2
REMARK VINA RESULT:    -8.453      0.199      1.012
REMARK INTER + INTRA:         -11.814
REMARK INTER:                 -10.826
REMARK INTRA:                  -0.988
REMARK UNBOUND:                -0.890
REMARK  5 active torsions:
REMARK  status: ('A' for Active; 'I' for Inactive)
REMARK    1  A    between atoms: N8_1  and  C24_2 
REMARK    2  A    between atoms: N8_1  and  C7_8 
REMARK    3  A    between atoms: C2_13  and  N1_14 
REMARK    4  A    between atoms: N1_14  and  C17_15 
REMARK    5  A    between atoms: C14_16  and  C13_19 
ROOT
ATOM      1  C17 FTA A   1       3.651  14.973  20.009  1.00  0.00     0.142 C 
ATOM      2  C14 FTA A   1       4.263  16.105  19.607  1.00  0.00     0.158 C 
ATOM      3  C18 FTA A   1       4.063  16.602  18.263  1.00  0.00     0.069 C 
ATOM      4  N21 FTA A   1       3.856  16.852  17.136  1.00  0.00    -0.197 NA
ENDROOT
BRANCH   2   5
ATOM      5  C13 FTA A   1       5.127  16.842  20.557  1.00  0.00     0.197 A 
ATOM      6  N15 FTA A   1       5.752  18.064  20.321  1.00  0.00    -0.093 NA
ATOM      7  N19 FTA A   1       6.500  18.375  21.449  1.00  0.00    -0.231 N 
ATOM      8  N20 FTA A   1       6.354  17.363  22.386  1.00  0.00    -0.017 NA
ATOM      9  H15 FTA A   1       7.074  19.223  21.571  1.00  0.00     0.200 HD
ATOM     10  N16 FTA A   1       5.494  16.416  21.839  1.00  0.00    -0.090 NA
ENDBRANCH   2   5
BRANCH   1  11
ATOM     11  N1  FTA A   1       4.393  13.988  20.549  1.00  0.00    -0.389 N 
ATOM     12  H11 FTA A   1       5.368  13.894  20.227  1.00  0.00     0.159 HD
BRANCH  11  13
ATOM     13  C2  FTA A   1       3.936  13.067  21.531  1.00  0.00     0.028 A 
ATOM     14  C4  FTA A   1       4.813  12.365  22.354  1.00  0.00     0.031 A 
ATOM     15  C6  FTA A   1       4.317  11.311  23.134  1.00  0.00     0.031 A 
ATOM     16  C7  FTA A   1       2.975  10.941  23.110  1.00  0.00     0.032 A 
ATOM     17  C5  FTA A   1       2.112  11.664  22.306  1.00  0.00     0.031 A 
ATOM     18  C3  FTA A   1       2.586  12.704  21.516  1.00  0.00     0.031 A 
BRANCH  16  19
ATOM     19  N8  FTA A   1       2.492   9.756  23.723  1.00  0.00    -0.356 N 
ATOM     20  H1  FTA A   1       2.225   9.814  24.717  1.00  0.00     0.166 HD
BRANCH  19  21
ATOM     21  C24 FTA A   1       2.346   8.491  23.077  1.00  0.00     0.032 A 
ATOM     22  C26 FTA A   1       1.169   8.125  22.469  1.00  0.00     0.029 A 
ATOM     23  C28 FTA A   1       1.035   6.826  22.015  1.00  0.00     0.002 A 
ATOM     24  C30 FTA A   1       2.052   5.893  22.122  1.00  0.00     0.000 A 
ATOM     25  C29 FTA A   1       3.243   6.257  22.691  1.00  0.00     0.002 A 
ATOM     26  C27 FTA A   1       3.381   7.570  23.155  1.00  0.00     0.029 A 
ENDBRANCH  19  21
ENDBRANCH  16  19
ENDBRANCH  11  13
ENDBRANCH   1  11
TORSDOF 5
ENDMDL
MODEL 3
REMARK VINA RESULT:    -8.160      0.946      1.407
REMARK INTER + INTRA:         -11.435
REMARK INTER:                 -10.560
REMARK INTRA:                  -0.875
REMARK UNBOUND:                -0.890
REMARK  5 active torsions:
REMARK  status: ('A' for Active; 'I' for Inactive)
REMARK    1  A    between atoms: N8_1  and  C24_2 
REMARK    2  A    between atoms: N8_1  and  C7_8 
REMARK    3  A    between atoms: C2_13  and  N1_14 
REMARK    4  A    between atoms: N1_14  and  C17_15 
REMARK    5  A    between atoms: C14_16  and  C13_19 
ROOT
ATOM      1  C17 FTA A   1       4.452  15.474  20.404  1.00  0.00     0.142 C 
ATOM      2  C14 FTA A   1       5.343  16.398  19.995  1.00  0.00     0.158 C 
ATOM      3  C18 FTA A   1       5.768  16.436  18.612  1.00  0.00     0.069 C 
ATOM      4  N21 FTA A   1       6.062  16.311  17.484  1.00  0.00    -0.197 NA
ENDROOT
BRANCH   2   5
ATOM      5  C13 FTA A   1       5.870  17.383  20.967  1.00  0.00     0.197 A 
ATOM      6  N15 FTA A   1       6.108  18.734  20.723  1.00  0.00    -0.093 NA
ATOM      7  N19 FTA A   1       6.642  19.280  21.882  1.00  0.00    -0.231 N 
ATOM      8  N20 FTA A   1       6.744  18.289  22.848  1.00  0.00    -0.017 NA
ATOM      9  H15 FTA A   1       6.919  20.265  22.006  1.00  0.00     0.200 HD
ATOM     10  N16 FTA A   1       6.256  17.114  22.286  1.00  0.00    -0.090 NA
ENDBRANCH   2   5
BRANCH   1  11
ATOM     11  N1  FTA A   1       4.757  14.700  21.464  1.00  0.00    -0.389 N 
ATOM     12  H11 FTA A   1       5.482  15.042  22.110  1.00  0.00     0.159 HD
BRANCH  11  13
ATOM     13  C2  FTA A   1       4.153  13.446  21.758  1.00  0.00     0.028 A 
ATOM     14  C4  FTA A   1       2.871  13.121  21.323  1.00  0.00     0.031 A 
ATOM     15  C6  FTA A   1       2.249  11.975  21.837  1.00  0.00     0.031 A 
ATOM     16  C7  FTA A   1       2.872  11.150  22.770  1.00  0.00     0.032 A 
ATOM     17  C5  FTA A   1       4.156  11.473  23.173  1.00  0.00     0.031 A 
ATOM     18  C3  FTA A   1       4.784  12.613  22.685  1.00  0.00     0.031 A 
BRANCH  16  19
ATOM     19  N8  FTA A   1       2.191  10.112  23.456  1.00  0.00    -0.356 N 
ATOM     20  H1  FTA A   1       1.628  10.379  24.277  1.00  0.00     0.166 HD
BRANCH  19  21
ATOM     21  C24 FTA A   1       2.221   8.729  23.103  1.00  0.00     0.032 A 
ATOM     22  C26 FTA A   1       3.335   7.954  23.323  1.00  0.00     0.029 A 
ATOM     23  C28 FTA A   1       3.363   6.673  22.804  1.00  0.00     0.002 A 
ATOM     24  C30 FTA A   1       2.301   6.134  22.099  1.00  0.00     0.000 A 
ATOM     25  C29 FTA A   1       1.171   6.883  21.906  1.00  0.00     0.002 A 
ATOM     26  C27 FTA A   1       1.141   8.181  22.428  1.00  0.00     0.029 A 
ENDBRANCH  19  21
ENDBRANCH  16  19
ENDBRANCH  11  13
ENDBRANCH   1  11
TORSDOF 5
ENDMDL
MODEL 4
REMARK VINA RESULT:    -8.137      1.321      2.783
REMARK INTER + INTRA:         -11.406
REMARK INTER:                 -10.448
REMARK INTRA:                  -0.958
REMARK UNBOUND:                -0.890
REMARK  5 active torsions:
REMARK  status: ('A' for Active; 'I' for Inactive)
REMARK    1  A    between atoms: N8_1  and  C24_2 
REMARK    2  A    between atoms: N8_1  and  C7_8 
REMARK    3  A    between atoms: C2_13  and  N1_14 
REMARK    4  A    between atoms: N1_14  and  C17_15 
REMARK    5  A    between atoms: C14_16  and  C13_19 
ROOT
ATOM      1  C17 FTA A   1       4.731  14.748  21.836  1.00  0.00     0.142 C 
ATOM      2  C14 FTA A   1       5.211  15.834  21.197  1.00  0.00     0.158 C 
ATOM      3  C18 FTA A   1       6.024  16.796  21.909  1.00  0.00     0.069 C 
ATOM      4  N21 FTA A   1       6.616  17.515  22.621  1.00  0.00    -0.197 NA
ENDROOT
BRANCH   2   5
ATOM      5  C13 FTA A   1       4.912  16.024  19.760  1.00  0.00     0.197 A 
ATOM      6  N15 FTA A   1       3.696  15.764  19.131  1.00  0.00    -0.093 NA
ATOM      7  N19 FTA A   1       3.859  16.032  17.778  1.00  0.00    -0.231 N 
ATOM      8  N20 FTA A   1       5.161  16.454  17.552  1.00  0.00    -0.017 NA
ATOM      9  H15 FTA A   1       3.130  15.934  17.057  1.00  0.00     0.200 HD
ATOM     10  N16 FTA A   1       5.813  16.460  18.781  1.00  0.00    -0.090 NA
ENDBRANCH   2   5
BRANCH   1  11
ATOM     11  N1  FTA A   1       3.410  14.489  21.779  1.00  0.00    -0.389 N 
ATOM     12  H11 FTA A   1       2.824  15.128  21.221  1.00  0.00     0.159 HD
BRANCH  11  13
ATOM     13  C2  FTA A   1       2.764  13.402  22.428  1.00  0.00     0.028 A 
ATOM     14  C4  FTA A   1       3.135  12.971  23.699  1.00  0.00     0.031 A 
ATOM     15  C6  FTA A   1       2.621  11.761  24.183  1.00  0.00     0.031 A 
ATOM     16  C7  FTA A   1       1.752  10.972  23.433  1.00  0.00     0.032 A 
ATOM     17  C5  FTA A   1       1.374  11.427  22.182  1.00  0.00     0.031 A 
ATOM     18  C3  FTA A   1       1.883  12.617  21.678  1.00  0.00     0.031 A 
BRANCH  16  19
ATOM     19  N8  FTA A   1       1.388   9.655  23.811  1.00  0.00    -0.356 N 
ATOM     20  H1  FTA A   1       0.763   9.553  24.624  1.00  0.00     0.166 HD
BRANCH  19  21
ATOM     21  C24 FTA A   1       1.815   8.459  23.158  1.00  0.00     0.032 A 
ATOM     22  C26 FTA A   1       0.960   7.721  22.375  1.00  0.00     0.029 A 
ATOM     23  C28 FTA A   1       1.382   6.489  21.913  1.00  0.00     0.002 A 
ATOM     24  C30 FTA A   1       2.644   5.986  22.185  1.00  0.00     0.000 A 
ATOM     25  C29 FTA A   1       3.518   6.729  22.933  1.00  0.00     0.002 A 
ATOM     26  C27 FTA A   1       3.092   7.976  23.404  1.00  0.00     0.029 A 
ENDBRANCH  19  21
ENDBRANCH  16  19
ENDBRANCH  11  13
ENDBRANCH   1  11
TORSDOF 5
ENDMDL
MODEL 5
REMARK VINA RESULT:    -7.517      1.498      2.323
REMARK INTER + INTRA:         -10.604
REMARK INTER:                  -9.838
REMARK INTRA:                  -0.766
REMARK UNBOUND:                -0.890
REMARK  5 active torsions:
REMARK  status: ('A' for Active; 'I' for Inactive)
REMARK    1  A    between atoms: N8_1  and  C24_2 
REMARK    2  A    between atoms: N8_1  and  C7_8 
REMARK    3  A    between atoms: C2_13  and  N1_14 
REMARK    4  A    between atoms: N1_14  and  C17_15 
REMARK    5  A    between atoms: C14_16  and  C13_19 
ROOT
ATOM      1  C17 FTA A   1       4.425  15.966  20.608  1.00  0.00     0.142 C 
ATOM      2  C14 FTA A   1       4.506  16.725  19.497  1.00  0.00     0.158 C 
ATOM      3  C18 FTA A   1       3.528  17.764  19.254  1.00  0.00     0.069 C 
ATOM      4  N21 FTA A   1       2.640  18.524  19.160  1.00  0.00    -0.197 NA
ENDROOT
BRANCH   2   5
ATOM      5  C13 FTA A   1       5.611  16.497  18.538  1.00  0.00     0.197 A 
ATOM      6  N15 FTA A   1       5.492  15.952  17.262  1.00  0.00    -0.093 NA
ATOM      7  N19 FTA A   1       6.769  15.872  16.722  1.00  0.00    -0.231 N 
ATOM      8  N20 FTA A   1       7.685  16.357  17.644  1.00  0.00    -0.017 NA
ATOM      9  H15 FTA A   1       7.000  15.510  15.785  1.00  0.00     0.200 HD
ATOM     10  N16 FTA A   1       6.968  16.755  18.767  1.00  0.00    -0.090 NA
ENDBRANCH   2   5
BRANCH   1  11
ATOM     11  N1  FTA A   1       4.427  14.625  20.482  1.00  0.00    -0.389 N 
ATOM     12  H11 FTA A   1       4.812  14.229  19.612  1.00  0.00     0.159 HD
BRANCH  11  13
ATOM     13  C2  FTA A   1       3.938  13.714  21.458  1.00  0.00     0.028 A 
ATOM     14  C4  FTA A   1       4.788  13.019  22.314  1.00  0.00     0.031 A 
ATOM     15  C6  FTA A   1       4.267  11.973  23.088  1.00  0.00     0.031 A 
ATOM     16  C7  FTA A   1       2.925  11.604  23.027  1.00  0.00     0.032 A 
ATOM     17  C5  FTA A   1       2.089  12.322  22.190  1.00  0.00     0.031 A 
ATOM     18  C3  FTA A   1       2.589  13.353  21.405  1.00  0.00     0.031 A 
BRANCH  16  19
ATOM     19  N8  FTA A   1       2.422  10.426  23.636  1.00  0.00    -0.356 N 
ATOM     20  H1  FTA A   1       2.139  10.489  24.624  1.00  0.00     0.166 HD
BRANCH  19  21
ATOM     21  C24 FTA A   1       2.276   9.161  22.992  1.00  0.00     0.032 A 
ATOM     22  C26 FTA A   1       1.064   8.740  22.496  1.00  0.00     0.029 A 
ATOM     23  C28 FTA A   1       0.950   7.440  22.041  1.00  0.00     0.002 A 
ATOM     24  C30 FTA A   1       2.017   6.558  22.038  1.00  0.00     0.000 A 
ATOM     25  C29 FTA A   1       3.238   6.976  22.494  1.00  0.00     0.002 A 
ATOM     26  C27 FTA A   1       3.356   8.291  22.958  1.00  0.00     0.029 A 
ENDBRANCH  19  21
ENDBRANCH  16  19
ENDBRANCH  11  13
ENDBRANCH   1  11
TORSDOF 5
ENDMDL
MODEL 6
REMARK VINA RESULT:    -7.440      1.832      2.740
REMARK INTER + INTRA:         -10.505
REMARK INTER:                  -9.544
REMARK INTRA:                  -0.961
REMARK UNBOUND:                -0.890
REMARK  5 active torsions:
REMARK  status: ('A' for Active; 'I' for Inactive)
REMARK    1  A    between atoms: N8_1  and  C24_2 
REMARK    2  A    between atoms: N8_1  and  C7_8 
REMARK    3  A    between atoms: C2_13  and  N1_14 
REMARK    4  A    between atoms: N1_14  and  C17_15 
REMARK    5  A    between atoms: C14_16  and  C13_19 
ROOT
ATOM      1  C17 FTA A   1       4.796  17.085  20.366  1.00  0.00     0.142 C 
ATOM      2  C14 FTA A   1       5.757  18.030  20.320  1.00  0.00     0.158 C 
ATOM      3  C18 FTA A   1       5.751  19.022  19.266  1.00  0.00     0.069 C 
ATOM      4  N21 FTA A   1       5.653  19.720  18.329  1.00  0.00    -0.197 NA
ENDROOT
BRANCH   2   5
ATOM      5  C13 FTA A   1       6.806  18.053  21.364  1.00  0.00     0.197 A 
ATOM      6  N15 FTA A   1       6.669  17.612  22.678  1.00  0.00    -0.093 NA
ATOM      7  N19 FTA A   1       7.871  17.855  23.329  1.00  0.00    -0.231 N 
ATOM      8  N20 FTA A   1       8.759  18.445  22.440  1.00  0.00    -0.017 NA
ATOM      9  H15 FTA A   1       8.073  17.633  24.314  1.00  0.00     0.200 HD
ATOM     10  N16 FTA A   1       8.104  18.559  21.218  1.00  0.00    -0.090 NA
ENDBRANCH   2   5
BRANCH   1  11
ATOM     11  N1  FTA A   1       5.160  15.790  20.440  1.00  0.00    -0.389 N 
ATOM     12  H11 FTA A   1       6.111  15.545  20.130  1.00  0.00     0.159 HD
BRANCH  11  13
ATOM     13  C2  FTA A   1       4.331  14.737  20.913  1.00  0.00     0.028 A 
ATOM     14  C4  FTA A   1       3.244  14.263  20.182  1.00  0.00     0.031 A 
ATOM     15  C6  FTA A   1       2.337  13.392  20.800  1.00  0.00     0.031 A 
ATOM     16  C7  FTA A   1       2.486  12.985  22.124  1.00  0.00     0.032 A 
ATOM     17  C5  FTA A   1       3.584  13.445  22.828  1.00  0.00     0.031 A 
ATOM     18  C3  FTA A   1       4.488  14.320  22.238  1.00  0.00     0.031 A 
BRANCH  16  19
ATOM     19  N8  FTA A   1       1.479  12.279  22.830  1.00  0.00    -0.356 N 
ATOM     20  H1  FTA A   1       0.859  12.827  23.443  1.00  0.00     0.166 HD
BRANCH  19  21
ATOM     21  C24 FTA A   1       1.254  10.870  22.760  1.00  0.00     0.032 A 
ATOM     22  C26 FTA A   1       1.768  10.011  23.702  1.00  0.00     0.029 A 
ATOM     23  C28 FTA A   1       1.662   8.650  23.485  1.00  0.00     0.002 A 
ATOM     24  C30 FTA A   1       1.030   8.123  22.372  1.00  0.00     0.000 A 
ATOM     25  C29 FTA A   1       0.480   8.968  21.446  1.00  0.00     0.002 A 
ATOM     26  C27 FTA A   1       0.589  10.346  21.661  1.00  0.00     0.029 A 
ENDBRANCH  19  21
ENDBRANCH  16  19
ENDBRANCH  11  13
ENDBRANCH   1  11
TORSDOF 5
ENDMDL
MODEL 7
REMARK VINA RESULT:    -7.438      2.582      8.078
REMARK INTER + INTRA:         -10.503
REMARK INTER:                  -9.380
REMARK INTRA:                  -1.123
REMARK UNBOUND:                -0.890
REMARK  5 active torsions:
REMARK  status: ('A' for Active; 'I' for Inactive)
REMARK    1  A    between atoms: N8_1  and  C24_2 
REMARK    2  A    between atoms: N8_1  and  C7_8 
REMARK    3  A    between atoms: C2_13  and  N1_14 
REMARK    4  A    between atoms: N1_14  and  C17_15 
REMARK    5  A    between atoms: C14_16  and  C13_19 
ROOT
ATOM      1  C17 FTA A   1       1.540  10.819  23.327  1.00  0.00     0.142 C 
ATOM      2  C14 FTA A   1       1.037  11.531  24.355  1.00  0.00     0.158 C 
ATOM      3  C18 FTA A   1      -0.283  12.116  24.258  1.00  0.00     0.069 C 
ATOM      4  N21 FTA A   1      -1.334  12.576  24.017  1.00  0.00    -0.197 NA
ENDROOT
BRANCH   2   5
ATOM      5  C13 FTA A   1       1.839  11.695  25.589  1.00  0.00     0.197 A 
ATOM      6  N15 FTA A   1       1.369  12.141  26.822  1.00  0.00    -0.093 NA
ATOM      7  N19 FTA A   1       2.452  12.191  27.690  1.00  0.00    -0.231 N 
ATOM      8  N20 FTA A   1       3.594  11.785  27.015  1.00  0.00    -0.017 NA
ATOM      9  H15 FTA A   1       2.414  12.484  28.677  1.00  0.00     0.200 HD
ATOM     10  N16 FTA A   1       3.214  11.466  25.715  1.00  0.00    -0.090 NA
ENDBRANCH   2   5
BRANCH   1  11
ATOM     11  N1  FTA A   1       2.754  11.145  22.842  1.00  0.00    -0.389 N 
ATOM     12  H11 FTA A   1       3.500  10.437  22.911  1.00  0.00     0.159 HD
BRANCH  11  13
ATOM     13  C2  FTA A   1       3.085  12.390  22.242  1.00  0.00     0.028 A 
ATOM     14  C4  FTA A   1       2.381  12.898  21.153  1.00  0.00     0.031 A 
ATOM     15  C6  FTA A   1       2.896  14.007  20.468  1.00  0.00     0.031 A 
ATOM     16  C7  FTA A   1       4.091  14.617  20.840  1.00  0.00     0.032 A 
ATOM     17  C5  FTA A   1       4.765  14.116  21.940  1.00  0.00     0.031 A 
ATOM     18  C3  FTA A   1       4.278  13.010  22.624  1.00  0.00     0.031 A 
BRANCH  16  19
ATOM     19  N8  FTA A   1       4.735  15.599  20.044  1.00  0.00    -0.356 N 
ATOM     20  H1  FTA A   1       5.759  15.676  20.125  1.00  0.00     0.166 HD
BRANCH  19  21
ATOM     21  C24 FTA A   1       4.080  16.488  19.139  1.00  0.00     0.032 A 
ATOM     22  C26 FTA A   1       4.098  16.276  17.781  1.00  0.00     0.029 A 
ATOM     23  C28 FTA A   1       3.597  17.261  16.951  1.00  0.00     0.002 A 
ATOM     24  C30 FTA A   1       3.051  18.436  17.437  1.00  0.00     0.000 A 
ATOM     25  C29 FTA A   1       2.993  18.643  18.790  1.00  0.00     0.002 A 
ATOM     26  C27 FTA A   1       3.503  17.649  19.633  1.00  0.00     0.029 A 
ENDBRANCH  19  21
ENDBRANCH  16  19
ENDBRANCH  11  13
ENDBRANCH   1  11
TORSDOF 5
ENDMDL
MODEL 8
REMARK VINA RESULT:    -7.432      2.590      8.024
REMARK INTER + INTRA:         -10.494
REMARK INTER:                  -9.336
REMARK INTRA:                  -1.158
REMARK UNBOUND:                -0.890
REMARK  5 active torsions:
REMARK  status: ('A' for Active; 'I' for Inactive)
REMARK    1  A    between atoms: N8_1  and  C24_2 
REMARK    2  A    between atoms: N8_1  and  C7_8 
REMARK    3  A    between atoms: C2_13  and  N1_14 
REMARK    4  A    between atoms: N1_14  and  C17_15 
REMARK    5  A    between atoms: C14_16  and  C13_19 
ROOT
ATOM      1  C17 FTA A   1       1.839  10.796  23.333  1.00  0.00     0.142 C 
ATOM      2  C14 FTA A   1       1.262  11.541  24.297  1.00  0.00     0.158 C 
ATOM      3  C18 FTA A   1      -0.035  12.141  24.073  1.00  0.00     0.069 C 
ATOM      4  N21 FTA A   1      -1.055  12.609  23.733  1.00  0.00    -0.197 NA
ENDROOT
BRANCH   2   5
ATOM      5  C13 FTA A   1       1.960  11.727  25.590  1.00  0.00     0.197 A 
ATOM      6  N15 FTA A   1       1.383  12.163  26.780  1.00  0.00    -0.093 NA
ATOM      7  N19 FTA A   1       2.393  12.241  27.730  1.00  0.00    -0.231 N 
ATOM      8  N20 FTA A   1       3.595  11.862  27.149  1.00  0.00    -0.017 NA
ATOM      9  H15 FTA A   1       2.271  12.535  28.710  1.00  0.00     0.200 HD
ATOM     10  N16 FTA A   1       3.326  11.532  25.825  1.00  0.00    -0.090 NA
ENDBRANCH   2   5
BRANCH   1  11
ATOM     11  N1  FTA A   1       3.094  11.092  22.945  1.00  0.00    -0.389 N 
ATOM     12  H11 FTA A   1       3.841  10.431  23.202  1.00  0.00     0.159 HD
BRANCH  11  13
ATOM     13  C2  FTA A   1       3.467  12.248  22.206  1.00  0.00     0.028 A 
ATOM     14  C4  FTA A   1       4.559  13.036  22.563  1.00  0.00     0.031 A 
ATOM     15  C6  FTA A   1       4.733  14.279  21.939  1.00  0.00     0.031 A 
ATOM     16  C7  FTA A   1       3.849  14.753  20.973  1.00  0.00     0.032 A 
ATOM     17  C5  FTA A   1       2.784  13.947  20.611  1.00  0.00     0.031 A 
ATOM     18  C3  FTA A   1       2.586  12.718  21.228  1.00  0.00     0.031 A 
BRANCH  16  19
ATOM     19  N8  FTA A   1       3.885  16.083  20.484  1.00  0.00    -0.356 N 
ATOM     20  H1  FTA A   1       3.003  16.615  20.494  1.00  0.00     0.166 HD
BRANCH  19  21
ATOM     21  C24 FTA A   1       5.044  16.747  19.978  1.00  0.00     0.032 A 
ATOM     22  C26 FTA A   1       5.607  16.395  18.774  1.00  0.00     0.029 A 
ATOM     23  C28 FTA A   1       6.822  16.954  18.423  1.00  0.00     0.002 A 
ATOM     24  C30 FTA A   1       7.474  17.876  19.223  1.00  0.00     0.000 A 
ATOM     25  C29 FTA A   1       6.905  18.263  20.407  1.00  0.00     0.002 A 
ATOM     26  C27 FTA A   1       5.677  17.696  20.767  1.00  0.00     0.029 A 
ENDBRANCH  19  21
ENDBRANCH  16  19
ENDBRANCH  11  13
ENDBRANCH   1  11
TORSDOF 5
ENDMDL
MODEL 9
REMARK VINA RESULT:    -7.314      2.541      8.546
REMARK INTER + INTRA:         -10.343
REMARK INTER:                  -9.453
REMARK INTRA:                  -0.890
REMARK UNBOUND:                -0.890
REMARK  5 active torsions:
REMARK  status: ('A' for Active; 'I' for Inactive)
REMARK    1  A    between atoms: N8_1  and  C24_2 
REMARK    2  A    between atoms: N8_1  and  C7_8 
REMARK    3  A    between atoms: C2_13  and  N1_14 
REMARK    4  A    between atoms: N1_14  and  C17_15 
REMARK    5  A    between atoms: C14_16  and  C13_19 
ROOT
ATOM      1  C17 FTA A   1       2.775  11.019  21.922  1.00  0.00     0.142 C 
ATOM      2  C14 FTA A   1       1.756  10.384  22.534  1.00  0.00     0.158 C 
ATOM      3  C18 FTA A   1       1.581   8.957  22.365  1.00  0.00     0.069 C 
ATOM      4  N21 FTA A   1       1.529   7.818  22.093  1.00  0.00    -0.197 NA
ENDROOT
BRANCH   2   5
ATOM      5  C13 FTA A   1       0.828  11.156  23.392  1.00  0.00     0.197 A 
ATOM      6  N15 FTA A   1      -0.181  12.010  22.952  1.00  0.00    -0.093 NA
ATOM      7  N19 FTA A   1      -0.780  12.563  24.077  1.00  0.00    -0.231 N 
ATOM      8  N20 FTA A   1      -0.158  12.068  25.214  1.00  0.00    -0.017 NA
ATOM      9  H15 FTA A   1      -1.562  13.234  24.068  1.00  0.00     0.200 HD
ATOM     10  N16 FTA A   1       0.832  11.187  24.792  1.00  0.00    -0.090 NA
ENDBRANCH   2   5
BRANCH   1  11
ATOM     11  N1  FTA A   1       2.507  12.098  21.161  1.00  0.00    -0.389 N 
ATOM     12  H11 FTA A   1       1.629  12.094  20.622  1.00  0.00     0.159 HD
BRANCH  11  13
ATOM     13  C2  FTA A   1       3.343  13.242  21.047  1.00  0.00     0.028 A 
ATOM     14  C4  FTA A   1       4.236  13.611  22.050  1.00  0.00     0.031 A 
ATOM     15  C6  FTA A   1       4.858  14.865  21.979  1.00  0.00     0.031 A 
ATOM     16  C7  FTA A   1       4.610  15.756  20.939  1.00  0.00     0.032 A 
ATOM     17  C5  FTA A   1       3.740  15.365  19.937  1.00  0.00     0.031 A 
ATOM     18  C3  FTA A   1       3.103  14.132  19.996  1.00  0.00     0.031 A 
BRANCH  16  19
ATOM     19  N8  FTA A   1       5.060  17.101  20.954  1.00  0.00    -0.356 N 
ATOM     20  H1  FTA A   1       4.356  17.837  20.801  1.00  0.00     0.166 HD
BRANCH  19  21
ATOM     21  C24 FTA A   1       6.409  17.519  21.164  1.00  0.00     0.032 A 
ATOM     22  C26 FTA A   1       6.928  17.671  22.428  1.00  0.00     0.029 A 
ATOM     23  C28 FTA A   1       8.179  18.242  22.567  1.00  0.00     0.002 A 
ATOM     24  C30 FTA A   1       8.940  18.636  21.480  1.00  0.00     0.000 A 
ATOM     25  C29 FTA A   1       8.450  18.455  20.214  1.00  0.00     0.002 A 
ATOM     26  C27 FTA A   1       7.182  17.881  20.070  1.00  0.00     0.029 A 
ENDBRANCH  19  21
ENDBRANCH  16  19
ENDBRANCH  11  13
ENDBRANCH   1  11
TORSDOF 5
ENDMDL
