MODEL 1
REMARK VINA RESULT:    -8.292      0.000      0.000
REMARK INTER + INTRA:         -12.485
REMARK INTER:                 -11.145
REMARK INTRA:                  -1.340
REMARK UNBOUND:                -1.527
REMARK  6 active torsions:
REMARK  status: ('A' for Active; 'I' for Inactive)
REMARK    1  A    between atoms: O_2  and  C_3 
REMARK       I    between atoms: N_7  and  C_8 
REMARK    2  A    between atoms: C_8  and  C_10 
REMARK    3  A    between atoms: C_17  and  C_21 
REMARK    4  A    between atoms: C_18  and  O_20 
REMARK       I    between atoms: C_21  and  N_23 
REMARK    5  A    between atoms: N_23  and  C_25 
REMARK    6  A    between atoms: C_28  and  N_31 
ROOT
HETATM    1  C   UNL     1      -0.020   9.828  26.462  0.00  0.00     0.157 A 
HETATM    2  N   UNL     1       0.010   9.451  27.756  0.00  0.00    -0.168 NA
HETATM    3  N   UNL     1      -1.187   9.789  28.243  0.00  0.00    -0.277 N 
HETATM    4  H   UNL     1      -1.378   9.597  29.220  0.00  0.00     0.189 HD
HETATM    5  C   UNL     1      -1.294  10.425  26.153  0.00  0.00     0.029 A 
HETATM    6  C   UNL     1      -2.018  10.376  27.338  0.00  0.00     0.065 A 
HETATM    7  C   UNL     1      -1.911  10.994  25.019  0.00  0.00     0.036 A 
HETATM    8  C   UNL     1      -3.248  11.436  25.082  0.00  0.00     0.066 A 
HETATM    9  C   UNL     1      -3.895  11.438  26.330  0.00  0.00     0.083 A 
HETATM   10  C   UNL     1      -3.311  10.880  27.471  0.00  0.00     0.069 A 
ENDROOT
BRANCH   8  11
HETATM   11  C   UNL     1      -3.973  11.943  23.869  0.00  0.00     0.260 C 
HETATM   12  O   UNL     1      -5.009  11.339  23.565  0.00  0.00    -0.267 OA
HETATM   13  N   UNL     1      -3.508  13.064  23.151  0.00  0.00    -0.318 N 
HETATM   14  C   UNL     1      -4.320  13.604  22.067  0.00  0.00     0.159 C 
BRANCH  13  15
HETATM   15  C   UNL     1      -2.209  13.620  23.274  0.00  0.00     0.037 A 
HETATM   16  C   UNL     1      -1.969  14.656  24.174  0.00  0.00     0.032 A 
HETATM   17  C   UNL     1      -0.724  15.289  24.184  0.00  0.00     0.031 A 
HETATM   18  C   UNL     1       0.306  14.943  23.291  0.00  0.00     0.030 A 
HETATM   19  C   UNL     1       0.068  13.847  22.453  0.00  0.00     0.031 A 
HETATM   20  C   UNL     1      -1.166  13.172  22.461  0.00  0.00     0.032 A 
BRANCH  18  21
HETATM   21  N   UNL     1       1.479  15.676  23.281  0.00  0.00    -0.377 N 
HETATM   22  C   UNL     1       2.826  15.096  23.424  0.00  0.00     0.149 C 
HETATM   23  C   UNL     1       3.640  15.236  22.131  0.00  0.00     0.187 C 
HETATM   24  O   UNL     1       3.678  16.607  21.700  0.00  0.00    -0.388 OA
HETATM   25  C   UNL     1       2.341  17.063  21.445  0.00  0.00     0.187 C 
HETATM   26  C   UNL     1       1.467  17.032  22.695  0.00  0.00     0.149 C 
ENDBRANCH  18  21
ENDBRANCH  13  15
ENDBRANCH   8  11
BRANCH   9  27
HETATM   27  O   UNL     1      -5.118  12.027  26.538  0.00  0.00    -0.360 OA
HETATM   28  H   UNL     1      -5.638  11.916  25.711  0.00  0.00     0.217 HD
ENDBRANCH   9  27
BRANCH   1  29
HETATM   29  C   UNL     1       1.137   9.656  25.541  0.00  0.00     0.275 C 
HETATM   30  N   UNL     1       1.626   8.369  25.306  0.00  0.00    -0.344 N 
HETATM   31  C   UNL     1       1.020   7.120  25.744  0.00  0.00     0.158 C 
HETATM   32  C   UNL     1       2.802   8.119  24.499  0.00  0.00     0.129 C 
HETATM   33  C   UNL     1       1.793   5.986  25.061  0.00  0.00     0.140 C 
HETATM   34  C   UNL     1       2.666   6.682  24.015  0.00  0.00     0.053 C 
HETATM   35  O   UNL     1       1.652  10.631  24.987  0.00  0.00    -0.266 OA
BRANCH  33  36
HETATM   36  O   UNL     1       0.849   5.069  24.498  0.00  0.00    -0.389 OA
HETATM   37  C   UNL     1       0.142   5.581  23.383  0.00  0.00     0.202 C 
ENDBRANCH  33  36
ENDBRANCH   1  29
TORSDOF 6
ENDMDL
MODEL 2
REMARK VINA RESULT:    -8.052      2.066      5.831
REMARK INTER + INTRA:         -12.168
REMARK INTER:                 -10.259
REMARK INTRA:                  -1.910
REMARK UNBOUND:                -1.527
REMARK  6 active torsions:
REMARK  status: ('A' for Active; 'I' for Inactive)
REMARK    1  A    between atoms: O_2  and  C_3 
REMARK       I    between atoms: N_7  and  C_8 
REMARK    2  A    between atoms: C_8  and  C_10 
REMARK    3  A    between atoms: C_17  and  C_21 
REMARK    4  A    between atoms: C_18  and  O_20 
REMARK       I    between atoms: C_21  and  N_23 
REMARK    5  A    between atoms: N_23  and  C_25 
REMARK    6  A    between atoms: C_28  and  N_31 
ROOT
HETATM    1  C   UNL     1      -4.008  11.796  25.470  0.00  0.00     0.157 A 
HETATM    2  N   UNL     1      -4.580  12.420  26.519  0.00  0.00    -0.168 NA
HETATM    3  N   UNL     1      -3.890  12.009  27.585  0.00  0.00    -0.277 N 
HETATM    4  H   UNL     1      -4.163  12.358  28.497  0.00  0.00     0.189 HD
HETATM    5  C   UNL     1      -2.922  10.965  25.924  0.00  0.00     0.029 A 
HETATM    6  C   UNL     1      -2.882  11.138  27.302  0.00  0.00     0.065 A 
HETATM    7  C   UNL     1      -1.979  10.098  25.334  0.00  0.00     0.036 A 
HETATM    8  C   UNL     1      -0.987   9.482  26.122  0.00  0.00     0.066 A 
HETATM    9  C   UNL     1      -1.054   9.628  27.519  0.00  0.00     0.083 A 
HETATM   10  C   UNL     1      -1.975  10.481  28.133  0.00  0.00     0.069 A 
ENDROOT
BRANCH   8  11
HETATM   11  C   UNL     1       0.100   8.643  25.515  0.00  0.00     0.260 C 
HETATM   12  O   UNL     1       0.270   7.527  26.022  0.00  0.00    -0.267 OA
HETATM   13  N   UNL     1       0.850   9.098  24.412  0.00  0.00    -0.318 N 
HETATM   14  C   UNL     1       1.797   8.194  23.769  0.00  0.00     0.159 C 
BRANCH  13  15
HETATM   15  C   UNL     1       0.898  10.444  23.968  0.00  0.00     0.037 A 
HETATM   16  C   UNL     1       0.337  10.802  22.744  0.00  0.00     0.032 A 
HETATM   17  C   UNL     1       0.515  12.098  22.255  0.00  0.00     0.031 A 
HETATM   18  C   UNL     1       1.274  13.067  22.937  0.00  0.00     0.030 A 
HETATM   19  C   UNL     1       1.757  12.706  24.201  0.00  0.00     0.031 A 
HETATM   20  C   UNL     1       1.550  11.419  24.727  0.00  0.00     0.032 A 
BRANCH  18  21
HETATM   21  N   UNL     1       1.499  14.299  22.351  0.00  0.00    -0.377 N 
HETATM   22  C   UNL     1       2.083  15.459  23.048  0.00  0.00     0.149 C 
HETATM   23  C   UNL     1       3.470  15.810  22.494  0.00  0.00     0.187 C 
HETATM   24  O   UNL     1       3.417  15.997  21.070  0.00  0.00    -0.388 OA
HETATM   25  C   UNL     1       2.974  14.782  20.447  0.00  0.00     0.187 C 
HETATM   26  C   UNL     1       1.566  14.385  20.878  0.00  0.00     0.149 C 
ENDBRANCH  18  21
ENDBRANCH  13  15
ENDBRANCH   8  11
BRANCH   9  27
HETATM   27  O   UNL     1      -0.262   8.915  28.385  0.00  0.00    -0.360 OA
HETATM   28  H   UNL     1      -0.093   9.491  29.164  0.00  0.00     0.217 HD
ENDBRANCH   9  27
BRANCH   1  29
HETATM   29  C   UNL     1      -4.491  11.955  24.070  0.00  0.00     0.275 C 
HETATM   30  N   UNL     1      -4.164  13.120  23.373  0.00  0.00    -0.344 N 
HETATM   31  C   UNL     1      -3.245  14.160  23.809  0.00  0.00     0.158 C 
HETATM   32  C   UNL     1      -4.667  13.397  22.044  0.00  0.00     0.129 C 
HETATM   33  C   UNL     1      -3.047  15.108  22.621  0.00  0.00     0.140 C 
HETATM   34  C   UNL     1      -3.680  14.382  21.432  0.00  0.00     0.053 C 
HETATM   35  O   UNL     1      -5.162  11.071  23.531  0.00  0.00    -0.266 OA
BRANCH  33  36
HETATM   36  O   UNL     1      -1.646  15.349  22.461  0.00  0.00    -0.389 OA
HETATM   37  C   UNL     1      -1.340  16.411  21.576  0.00  0.00     0.202 C 
ENDBRANCH  33  36
ENDBRANCH   1  29
TORSDOF 6
ENDMDL
MODEL 3
REMARK VINA RESULT:    -8.044      1.352      1.872
REMARK INTER + INTRA:         -12.158
REMARK INTER:                 -10.528
REMARK INTRA:                  -1.629
REMARK UNBOUND:                -1.527
REMARK  6 active torsions:
REMARK  status: ('A' for Active; 'I' for Inactive)
REMARK    1  A    between atoms: O_2  and  C_3 
REMARK       I    between atoms: N_7  and  C_8 
REMARK    2  A    between atoms: C_8  and  C_10 
REMARK    3  A    between atoms: C_17  and  C_21 
REMARK    4  A    between atoms: C_18  and  O_20 
REMARK       I    between atoms: C_21  and  N_23 
REMARK    5  A    between atoms: N_23  and  C_25 
REMARK    6  A    between atoms: C_28  and  N_31 
ROOT
HETATM    1  C   UNL     1      -0.536   8.489  26.261  0.00  0.00     0.157 A 
HETATM    2  N   UNL     1      -0.281   8.438  27.584  0.00  0.00    -0.168 NA
HETATM    3  N   UNL     1      -0.937   9.478  28.103  0.00  0.00    -0.277 N 
HETATM    4  H   UNL     1      -0.874   9.635  29.103  0.00  0.00     0.189 HD
HETATM    5  C   UNL     1      -1.384   9.616  25.966  0.00  0.00     0.029 A 
HETATM    6  C   UNL     1      -1.619  10.226  27.192  0.00  0.00     0.065 A 
HETATM    7  C   UNL     1      -1.972  10.182  24.816  0.00  0.00     0.036 A 
HETATM    8  C   UNL     1      -2.828  11.296  24.929  0.00  0.00     0.066 A 
HETATM    9  C   UNL     1      -2.956  11.919  26.183  0.00  0.00     0.083 A 
HETATM   10  C   UNL     1      -2.386  11.381  27.341  0.00  0.00     0.069 A 
ENDROOT
BRANCH   8  11
HETATM   11  C   UNL     1      -3.560  11.857  23.744  0.00  0.00     0.260 C 
HETATM   12  O   UNL     1      -4.655  11.341  23.490  0.00  0.00    -0.267 OA
HETATM   13  N   UNL     1      -3.034  12.931  22.996  0.00  0.00    -0.318 N 
HETATM   14  C   UNL     1      -3.844  13.532  21.944  0.00  0.00     0.159 C 
BRANCH  13  15
HETATM   15  C   UNL     1      -1.689  13.375  23.059  0.00  0.00     0.037 A 
HETATM   16  C   UNL     1      -1.350  14.488  23.826  0.00  0.00     0.032 A 
HETATM   17  C   UNL     1      -0.052  15.000  23.765  0.00  0.00     0.031 A 
HETATM   18  C   UNL     1       0.938  14.453  22.928  0.00  0.00     0.030 A 
HETATM   19  C   UNL     1       0.595  13.289  22.231  0.00  0.00     0.031 A 
HETATM   20  C   UNL     1      -0.695  12.736  22.314  0.00  0.00     0.032 A 
BRANCH  18  21
HETATM   21  N   UNL     1       2.173  15.069  22.836  0.00  0.00    -0.377 N 
HETATM   22  C   UNL     1       3.464  14.364  22.934  0.00  0.00     0.149 C 
HETATM   23  C   UNL     1       4.220  14.386  21.598  0.00  0.00     0.187 C 
HETATM   24  O   UNL     1       4.367  15.732  21.118  0.00  0.00    -0.388 OA
HETATM   25  C   UNL     1       3.067  16.308  20.912  0.00  0.00     0.187 C 
HETATM   26  C   UNL     1       2.260  16.400  22.204  0.00  0.00     0.149 C 
ENDBRANCH  18  21
ENDBRANCH  13  15
ENDBRANCH   8  11
BRANCH   9  27
HETATM   27  O   UNL     1      -3.600  13.118  26.361  0.00  0.00    -0.360 OA
HETATM   28  H   UNL     1      -3.069  13.804  25.899  0.00  0.00     0.217 HD
ENDBRANCH   9  27
BRANCH   1  29
HETATM   29  C   UNL     1       0.029   7.513  25.289  0.00  0.00     0.275 C 
HETATM   30  N   UNL     1       1.396   7.563  25.002  0.00  0.00    -0.344 N 
HETATM   31  C   UNL     1       2.393   8.377  25.680  0.00  0.00     0.158 C 
HETATM   32  C   UNL     1       2.011   6.715  24.003  0.00  0.00     0.129 C 
HETATM   33  C   UNL     1       3.764   7.924  25.165  0.00  0.00     0.140 C 
HETATM   34  C   UNL     1       3.483   6.638  24.385  0.00  0.00     0.053 C 
HETATM   35  O   UNL     1      -0.692   6.670  24.750  0.00  0.00    -0.266 OA
BRANCH  33  36
HETATM   36  O   UNL     1       4.630   7.732  26.289  0.00  0.00    -0.389 OA
HETATM   37  C   UNL     1       4.542   6.444  26.872  0.00  0.00     0.202 C 
ENDBRANCH  33  36
ENDBRANCH   1  29
TORSDOF 6
ENDMDL
MODEL 4
REMARK VINA RESULT:    -7.865      2.080      2.977
REMARK INTER + INTRA:         -11.921
REMARK INTER:                  -9.983
REMARK INTRA:                  -1.938
REMARK UNBOUND:                -1.527
REMARK  6 active torsions:
REMARK  status: ('A' for Active; 'I' for Inactive)
REMARK    1  A    between atoms: O_2  and  C_3 
REMARK       I    between atoms: N_7  and  C_8 
REMARK    2  A    between atoms: C_8  and  C_10 
REMARK    3  A    between atoms: C_17  and  C_21 
REMARK    4  A    between atoms: C_18  and  O_20 
REMARK       I    between atoms: C_21  and  N_23 
REMARK    5  A    between atoms: N_23  and  C_25 
REMARK    6  A    between atoms: C_28  and  N_31 
ROOT
HETATM    1  C   UNL     1       0.981   9.316  24.969  0.00  0.00     0.157 A 
HETATM    2  N   UNL     1       0.902   8.672  23.788  0.00  0.00    -0.168 NA
HETATM    3  N   UNL     1      -0.250   9.078  23.248  0.00  0.00    -0.277 N 
HETATM    4  H   UNL     1      -0.514   8.703  22.344  0.00  0.00     0.189 HD
HETATM    5  C   UNL     1      -0.180  10.148  25.155  0.00  0.00     0.029 A 
HETATM    6  C   UNL     1      -0.949   9.962  24.012  0.00  0.00     0.065 A 
HETATM    7  C   UNL     1      -0.662  11.028  26.146  0.00  0.00     0.036 A 
HETATM    8  C   UNL     1      -1.859  11.744  25.942  0.00  0.00     0.066 A 
HETATM    9  C   UNL     1      -2.633  11.446  24.806  0.00  0.00     0.083 A 
HETATM   10  C   UNL     1      -2.181  10.581  23.805  0.00  0.00     0.069 A 
ENDROOT
BRANCH   8  11
HETATM   11  C   UNL     1      -2.346  12.770  26.924  0.00  0.00     0.260 C 
HETATM   12  O   UNL     1      -3.161  12.372  27.764  0.00  0.00    -0.267 OA
HETATM   13  N   UNL     1      -1.867  14.096  26.898  0.00  0.00    -0.318 N 
HETATM   14  C   UNL     1      -2.262  15.018  27.956  0.00  0.00     0.159 C 
BRANCH  13  15
HETATM   15  C   UNL     1      -1.161  14.679  25.815  0.00  0.00     0.037 A 
HETATM   16  C   UNL     1      -1.827  15.014  24.638  0.00  0.00     0.032 A 
HETATM   17  C   UNL     1      -1.098  15.453  23.531  0.00  0.00     0.031 A 
HETATM   18  C   UNL     1       0.306  15.544  23.539  0.00  0.00     0.030 A 
HETATM   19  C   UNL     1       0.944  15.279  24.757  0.00  0.00     0.031 A 
HETATM   20  C   UNL     1       0.219  14.878  25.894  0.00  0.00     0.032 A 
BRANCH  18  21
HETATM   21  N   UNL     1       0.977  15.886  22.379  0.00  0.00    -0.377 N 
HETATM   22  C   UNL     1       2.178  16.739  22.332  0.00  0.00     0.149 C 
HETATM   23  C   UNL     1       3.416  15.946  21.891  0.00  0.00     0.187 C 
HETATM   24  O   UNL     1       3.172  15.274  20.644  0.00  0.00    -0.388 OA
HETATM   25  C   UNL     1       2.079  14.357  20.803  0.00  0.00     0.187 C 
HETATM   26  C   UNL     1       0.776  15.061  21.171  0.00  0.00     0.149 C 
ENDBRANCH  18  21
ENDBRANCH  13  15
ENDBRANCH   8  11
BRANCH   9  27
HETATM   27  O   UNL     1      -3.901  11.937  24.615  0.00  0.00    -0.360 OA
HETATM   28  H   UNL     1      -3.979  12.756  25.154  0.00  0.00     0.217 HD
ENDBRANCH   9  27
BRANCH   1  29
HETATM   29  C   UNL     1       2.113   9.131  25.919  0.00  0.00     0.275 C 
HETATM   30  N   UNL     1       2.055   8.082  26.840  0.00  0.00    -0.344 N 
HETATM   31  C   UNL     1       1.063   7.019  26.878  0.00  0.00     0.158 C 
HETATM   32  C   UNL     1       3.066   7.885  27.858  0.00  0.00     0.129 C 
HETATM   33  C   UNL     1       1.544   5.996  27.915  0.00  0.00     0.140 C 
HETATM   34  C   UNL     1       2.981   6.412  28.236  0.00  0.00     0.053 C 
HETATM   35  O   UNL     1       3.089   9.884  25.890  0.00  0.00    -0.266 OA
BRANCH  33  36
HETATM   36  O   UNL     1       1.443   4.689  27.343  0.00  0.00    -0.389 OA
HETATM   37  C   UNL     1       2.078   4.558  26.084  0.00  0.00     0.202 C 
ENDBRANCH  33  36
ENDBRANCH   1  29
TORSDOF 6
ENDMDL
MODEL 5
REMARK VINA RESULT:    -7.848      2.040      6.836
REMARK INTER + INTRA:         -11.899
REMARK INTER:                 -10.657
REMARK INTRA:                  -1.242
REMARK UNBOUND:                -1.527
REMARK  6 active torsions:
REMARK  status: ('A' for Active; 'I' for Inactive)
REMARK    1  A    between atoms: O_2  and  C_3 
REMARK       I    between atoms: N_7  and  C_8 
REMARK    2  A    between atoms: C_8  and  C_10 
REMARK    3  A    between atoms: C_17  and  C_21 
REMARK    4  A    between atoms: C_18  and  O_20 
REMARK       I    between atoms: C_21  and  N_23 
REMARK    5  A    between atoms: N_23  and  C_25 
REMARK    6  A    between atoms: C_28  and  N_31 
ROOT
HETATM    1  C   UNL     1       0.345  15.637  23.754  0.00  0.00     0.157 A 
HETATM    2  N   UNL     1       1.250  16.203  24.577  0.00  0.00    -0.168 NA
HETATM    3  N   UNL     1       0.839  15.894  25.809  0.00  0.00    -0.277 N 
HETATM    4  H   UNL     1       1.382  16.232  26.595  0.00  0.00     0.189 HD
HETATM    5  C   UNL     1      -0.665  14.957  24.524  0.00  0.00     0.029 A 
HETATM    6  C   UNL     1      -0.300  15.149  25.852  0.00  0.00     0.065 A 
HETATM    7  C   UNL     1      -1.829  14.209  24.255  0.00  0.00     0.036 A 
HETATM    8  C   UNL     1      -2.558  13.621  25.309  0.00  0.00     0.066 A 
HETATM    9  C   UNL     1      -2.189  13.925  26.630  0.00  0.00     0.083 A 
HETATM   10  C   UNL     1      -1.039  14.661  26.930  0.00  0.00     0.069 A 
ENDROOT
BRANCH   8  11
HETATM   11  C   UNL     1      -3.737  12.727  25.054  0.00  0.00     0.260 C 
HETATM   12  O   UNL     1      -4.849  13.217  25.287  0.00  0.00    -0.267 OA
HETATM   13  N   UNL     1      -3.573  11.421  24.547  0.00  0.00    -0.318 N 
HETATM   14  C   UNL     1      -4.752  10.643  24.184  0.00  0.00     0.159 C 
BRANCH  13  15
HETATM   15  C   UNL     1      -2.345  10.713  24.522  0.00  0.00     0.037 A 
HETATM   16  C   UNL     1      -1.816  10.180  25.695  0.00  0.00     0.032 A 
HETATM   17  C   UNL     1      -0.540   9.611  25.682  0.00  0.00     0.031 A 
HETATM   18  C   UNL     1       0.261   9.578  24.527  0.00  0.00     0.030 A 
HETATM   19  C   UNL     1      -0.325  10.047  23.345  0.00  0.00     0.031 A 
HETATM   20  C   UNL     1      -1.625  10.584  23.333  0.00  0.00     0.032 A 
BRANCH  18  21
HETATM   21  N   UNL     1       1.555   9.095  24.603  0.00  0.00    -0.377 N 
HETATM   22  C   UNL     1       2.487   9.382  25.708  0.00  0.00     0.149 C 
HETATM   23  C   UNL     1       2.795   8.121  26.527  0.00  0.00     0.187 C 
HETATM   24  O   UNL     1       3.265   7.063  25.676  0.00  0.00    -0.388 OA
HETATM   25  C   UNL     1       2.249   6.741  24.713  0.00  0.00     0.187 C 
HETATM   26  C   UNL     1       1.923   7.915  23.795  0.00  0.00     0.149 C 
ENDBRANCH  18  21
ENDBRANCH  13  15
ENDBRANCH   8  11
BRANCH   9  27
HETATM   27  O   UNL     1      -2.945  13.569  27.720  0.00  0.00    -0.360 OA
HETATM   28  H   UNL     1      -3.870  13.845  27.532  0.00  0.00     0.217 HD
ENDBRANCH   9  27
BRANCH   1  29
HETATM   29  C   UNL     1       0.411  15.758  22.271  0.00  0.00     0.275 C 
HETATM   30  N   UNL     1       1.663  15.839  21.657  0.00  0.00    -0.344 N 
HETATM   31  C   UNL     1       2.955  15.654  22.299  0.00  0.00     0.158 C 
HETATM   32  C   UNL     1       1.817  16.051  20.233  0.00  0.00     0.129 C 
HETATM   33  C   UNL     1       4.007  15.618  21.184  0.00  0.00     0.140 C 
HETATM   34  C   UNL     1       3.199  15.511  19.889  0.00  0.00     0.053 C 
HETATM   35  O   UNL     1      -0.620  15.778  21.594  0.00  0.00    -0.266 OA
BRANCH  33  36
HETATM   36  O   UNL     1       4.870  14.500  21.411  0.00  0.00    -0.389 OA
HETATM   37  C   UNL     1       6.033  14.811  22.158  0.00  0.00     0.202 C 
ENDBRANCH  33  36
ENDBRANCH   1  29
TORSDOF 6
ENDMDL
MODEL 6
REMARK VINA RESULT:    -7.671      1.964      3.153
REMARK INTER + INTRA:         -11.664
REMARK INTER:                 -10.370
REMARK INTRA:                  -1.294
REMARK UNBOUND:                -1.527
REMARK  6 active torsions:
REMARK  status: ('A' for Active; 'I' for Inactive)
REMARK    1  A    between atoms: O_2  and  C_3 
REMARK       I    between atoms: N_7  and  C_8 
REMARK    2  A    between atoms: C_8  and  C_10 
REMARK    3  A    between atoms: C_17  and  C_21 
REMARK    4  A    between atoms: C_18  and  O_20 
REMARK       I    between atoms: C_21  and  N_23 
REMARK    5  A    between atoms: N_23  and  C_25 
REMARK    6  A    between atoms: C_28  and  N_31 
ROOT
HETATM    1  C   UNL     1       0.074   9.626  24.862  0.00  0.00     0.157 A 
HETATM    2  N   UNL     1       1.174   9.227  24.192  0.00  0.00    -0.168 NA
HETATM    3  N   UNL     1       1.033   9.730  22.963  0.00  0.00    -0.277 N 
HETATM    4  H   UNL     1       1.758   9.540  22.281  0.00  0.00     0.189 HD
HETATM    5  C   UNL     1      -0.775  10.405  23.996  0.00  0.00     0.029 A 
HETATM    6  C   UNL     1      -0.110  10.447  22.776  0.00  0.00     0.065 A 
HETATM    7  C   UNL     1      -2.012  11.072  24.103  0.00  0.00     0.036 A 
HETATM    8  C   UNL     1      -2.519  11.813  23.017  0.00  0.00     0.066 A 
HETATM    9  C   UNL     1      -1.844  11.744  21.786  0.00  0.00     0.083 A 
HETATM   10  C   UNL     1      -0.615  11.093  21.648  0.00  0.00     0.069 A 
ENDROOT
BRANCH   8  11
HETATM   11  C   UNL     1      -3.777  12.626  23.129  0.00  0.00     0.260 C 
HETATM   12  O   UNL     1      -4.832  11.985  23.193  0.00  0.00    -0.267 OA
HETATM   13  N   UNL     1      -3.737  14.034  23.194  0.00  0.00    -0.318 N 
HETATM   14  C   UNL     1      -4.970  14.772  23.444  0.00  0.00     0.159 C 
BRANCH  13  15
HETATM   15  C   UNL     1      -2.612  14.827  22.854  0.00  0.00     0.037 A 
HETATM   16  C   UNL     1      -2.510  15.399  21.587  0.00  0.00     0.032 A 
HETATM   17  C   UNL     1      -1.334  16.056  21.219  0.00  0.00     0.031 A 
HETATM   18  C   UNL     1      -0.217  16.142  22.070  0.00  0.00     0.030 A 
HETATM   19  C   UNL     1      -0.375  15.630  23.363  0.00  0.00     0.031 A 
HETATM   20  C   UNL     1      -1.568  15.004  23.765  0.00  0.00     0.032 A 
BRANCH  18  21
HETATM   21  N   UNL     1       0.954  16.716  21.607  0.00  0.00    -0.377 N 
HETATM   22  C   UNL     1       2.124  17.017  22.452  0.00  0.00     0.149 C 
HETATM   23  C   UNL     1       3.325  16.135  22.084  0.00  0.00     0.187 C 
HETATM   24  O   UNL     1       3.622  16.237  20.682  0.00  0.00    -0.388 OA
HETATM   25  C   UNL     1       2.487  15.795  19.922  0.00  0.00     0.187 C 
HETATM   26  C   UNL     1       1.252  16.659  20.162  0.00  0.00     0.149 C 
ENDBRANCH  18  21
ENDBRANCH  13  15
ENDBRANCH   8  11
BRANCH   9  27
HETATM   27  O   UNL     1      -2.356  12.262  20.621  0.00  0.00    -0.360 OA
HETATM   28  H   UNL     1      -3.333  12.164  20.666  0.00  0.00     0.217 HD
ENDBRANCH   9  27
BRANCH   1  29
HETATM   29  C   UNL     1      -0.189   9.259  26.280  0.00  0.00     0.275 C 
HETATM   30  N   UNL     1      -0.427   7.919  26.596  0.00  0.00    -0.344 N 
HETATM   31  C   UNL     1      -0.288   6.781  25.700  0.00  0.00     0.158 C 
HETATM   32  C   UNL     1      -0.781   7.487  27.932  0.00  0.00     0.129 C 
HETATM   33  C   UNL     1      -0.440   5.518  26.556  0.00  0.00     0.140 C 
HETATM   34  C   UNL     1      -0.389   6.017  28.001  0.00  0.00     0.053 C 
HETATM   35  O   UNL     1      -0.189  10.119  27.164  0.00  0.00    -0.266 OA
BRANCH  33  36
HETATM   36  O   UNL     1       0.621   4.616  26.226  0.00  0.00    -0.389 OA
HETATM   37  C   UNL     1       1.896   5.034  26.681  0.00  0.00     0.202 C 
ENDBRANCH  33  36
ENDBRANCH   1  29
TORSDOF 6
ENDMDL
MODEL 7
REMARK VINA RESULT:    -7.601      2.387      7.014
REMARK INTER + INTRA:         -11.572
REMARK INTER:                 -10.885
REMARK INTRA:                  -0.688
REMARK UNBOUND:                -1.527
REMARK  6 active torsions:
REMARK  status: ('A' for Active; 'I' for Inactive)
REMARK    1  A    between atoms: O_2  and  C_3 
REMARK       I    between atoms: N_7  and  C_8 
REMARK    2  A    between atoms: C_8  and  C_10 
REMARK    3  A    between atoms: C_17  and  C_21 
REMARK    4  A    between atoms: C_18  and  O_20 
REMARK       I    between atoms: C_21  and  N_23 
REMARK    5  A    between atoms: N_23  and  C_25 
REMARK    6  A    between atoms: C_28  and  N_31 
ROOT
HETATM    1  C   UNL     1      -3.319  14.446  23.741  0.00  0.00     0.157 A 
HETATM    2  N   UNL     1      -4.626  14.457  23.410  0.00  0.00    -0.168 NA
HETATM    3  N   UNL     1      -4.678  15.061  22.221  0.00  0.00    -0.277 N 
HETATM    4  H   UNL     1      -5.584  15.183  21.784  0.00  0.00     0.189 HD
HETATM    5  C   UNL     1      -2.544  15.077  22.703  0.00  0.00     0.029 A 
HETATM    6  C   UNL     1      -3.468  15.458  21.737  0.00  0.00     0.065 A 
HETATM    7  C   UNL     1      -1.183  15.365  22.473  0.00  0.00     0.036 A 
HETATM    8  C   UNL     1      -0.776  15.963  21.262  0.00  0.00     0.066 A 
HETATM    9  C   UNL     1      -1.766  16.402  20.366  0.00  0.00     0.083 A 
HETATM   10  C   UNL     1      -3.123  16.129  20.565  0.00  0.00     0.069 A 
ENDROOT
BRANCH   8  11
HETATM   11  C   UNL     1       0.673  16.183  20.934  0.00  0.00     0.260 C 
HETATM   12  O   UNL     1       0.928  17.188  20.259  0.00  0.00    -0.267 OA
HETATM   13  N   UNL     1       1.673  15.309  21.405  0.00  0.00    -0.318 N 
HETATM   14  C   UNL     1       3.075  15.641  21.180  0.00  0.00     0.159 C 
BRANCH  13  15
HETATM   15  C   UNL     1       1.431  14.016  21.936  0.00  0.00     0.037 A 
HETATM   16  C   UNL     1       0.874  13.020  21.137  0.00  0.00     0.032 A 
HETATM   17  C   UNL     1       0.510  11.799  21.709  0.00  0.00     0.031 A 
HETATM   18  C   UNL     1       0.654  11.534  23.083  0.00  0.00     0.030 A 
HETATM   19  C   UNL     1       1.290  12.520  23.847  0.00  0.00     0.031 A 
HETATM   20  C   UNL     1       1.702  13.738  23.277  0.00  0.00     0.032 A 
BRANCH  18  21
HETATM   21  N   UNL     1       0.179  10.345  23.605  0.00  0.00    -0.377 N 
HETATM   22  C   UNL     1       0.935   9.080  23.618  0.00  0.00     0.149 C 
HETATM   23  C   UNL     1       1.305   8.659  25.047  0.00  0.00     0.187 C 
HETATM   24  O   UNL     1       0.136   8.607  25.881  0.00  0.00    -0.388 OA
HETATM   25  C   UNL     1      -0.470   9.907  25.934  0.00  0.00     0.187 C 
HETATM   26  C   UNL     1      -0.943  10.386  24.565  0.00  0.00     0.149 C 
ENDBRANCH  18  21
ENDBRANCH  13  15
ENDBRANCH   8  11
BRANCH   9  27
HETATM   27  O   UNL     1      -1.489  17.168  19.260  0.00  0.00    -0.360 OA
HETATM   28  H   UNL     1      -0.949  16.614  18.653  0.00  0.00     0.217 HD
ENDBRANCH   9  27
BRANCH   1  29
HETATM   29  C   UNL     1      -2.811  13.880  25.021  0.00  0.00     0.275 C 
HETATM   30  N   UNL     1      -3.545  12.871  25.649  0.00  0.00    -0.344 N 
HETATM   31  C   UNL     1      -4.701  12.175  25.105  0.00  0.00     0.158 C 
HETATM   32  C   UNL     1      -3.175  12.329  26.940  0.00  0.00     0.129 C 
HETATM   33  C   UNL     1      -5.016  11.017  26.060  0.00  0.00     0.140 C 
HETATM   34  C   UNL     1      -3.810  10.947  26.998  0.00  0.00     0.053 C 
HETATM   35  O   UNL     1      -1.757  14.286  25.515  0.00  0.00    -0.266 OA
BRANCH  33  36
HETATM   36  O   UNL     1      -5.206   9.830  25.285  0.00  0.00    -0.389 OA
HETATM   37  C   UNL     1      -6.393   9.828  24.512  0.00  0.00     0.202 C 
ENDBRANCH  33  36
ENDBRANCH   1  29
TORSDOF 6
ENDMDL
MODEL 8
REMARK VINA RESULT:    -7.437      1.935      7.203
REMARK INTER + INTRA:         -11.356
REMARK INTER:                  -9.829
REMARK INTRA:                  -1.527
REMARK UNBOUND:                -1.527
REMARK  6 active torsions:
REMARK  status: ('A' for Active; 'I' for Inactive)
REMARK    1  A    between atoms: O_2  and  C_3 
REMARK       I    between atoms: N_7  and  C_8 
REMARK    2  A    between atoms: C_8  and  C_10 
REMARK    3  A    between atoms: C_17  and  C_21 
REMARK    4  A    between atoms: C_18  and  O_20 
REMARK       I    between atoms: C_21  and  N_23 
REMARK    5  A    between atoms: N_23  and  C_25 
REMARK    6  A    between atoms: C_28  and  N_31 
ROOT
HETATM    1  C   UNL     1      -1.853  12.099  22.610  0.00  0.00     0.157 A 
HETATM    2  N   UNL     1      -2.894  12.378  21.800  0.00  0.00    -0.168 NA
HETATM    3  N   UNL     1      -3.981  12.096  22.523  0.00  0.00    -0.277 N 
HETATM    4  H   UNL     1      -4.890  12.230  22.094  0.00  0.00     0.189 HD
HETATM    5  C   UNL     1      -2.333  11.621  23.882  0.00  0.00     0.029 A 
HETATM    6  C   UNL     1      -3.719  11.639  23.779  0.00  0.00     0.065 A 
HETATM    7  C   UNL     1      -1.762  11.183  25.094  0.00  0.00     0.036 A 
HETATM    8  C   UNL     1      -2.584  10.838  26.186  0.00  0.00     0.066 A 
HETATM    9  C   UNL     1      -3.975  10.793  25.990  0.00  0.00     0.083 A 
HETATM   10  C   UNL     1      -4.572  11.224  24.801  0.00  0.00     0.069 A 
ENDROOT
BRANCH   8  11
HETATM   11  C   UNL     1      -2.011  10.474  27.526  0.00  0.00     0.260 C 
HETATM   12  O   UNL     1      -2.444  11.114  28.492  0.00  0.00    -0.267 OA
HETATM   13  N   UNL     1      -1.063   9.439  27.663  0.00  0.00    -0.318 N 
HETATM   14  C   UNL     1      -0.642   9.029  28.997  0.00  0.00     0.159 C 
BRANCH  13  15
HETATM   15  C   UNL     1      -0.332   8.867  26.591  0.00  0.00     0.037 A 
HETATM   16  C   UNL     1      -0.771   7.689  25.989  0.00  0.00     0.032 A 
HETATM   17  C   UNL     1       0.031   7.061  25.034  0.00  0.00     0.031 A 
HETATM   18  C   UNL     1       1.296   7.554  24.666  0.00  0.00     0.030 A 
HETATM   19  C   UNL     1       1.677   8.779  25.225  0.00  0.00     0.031 A 
HETATM   20  C   UNL     1       0.862   9.447  26.157  0.00  0.00     0.032 A 
BRANCH  18  21
HETATM   21  N   UNL     1       2.086   6.830  23.791  0.00  0.00    -0.377 N 
HETATM   22  C   UNL     1       3.419   7.253  23.328  0.00  0.00     0.149 C 
HETATM   23  C   UNL     1       4.522   6.328  23.863  0.00  0.00     0.187 C 
HETATM   24  O   UNL     1       4.238   4.958  23.538  0.00  0.00    -0.388 OA
HETATM   25  C   UNL     1       2.993   4.573  24.139  0.00  0.00     0.187 C 
HETATM   26  C   UNL     1       1.815   5.389  23.614  0.00  0.00     0.149 C 
ENDBRANCH  18  21
ENDBRANCH  13  15
ENDBRANCH   8  11
BRANCH   9  27
HETATM   27  O   UNL     1      -4.847  10.283  26.920  0.00  0.00    -0.360 OA
HETATM   28  H   UNL     1      -5.581  10.930  27.015  0.00  0.00     0.217 HD
ENDBRANCH   9  27
BRANCH   1  29
HETATM   29  C   UNL     1      -0.434  12.251  22.188  0.00  0.00     0.275 C 
HETATM   30  N   UNL     1       0.257  13.409  22.551  0.00  0.00    -0.344 N 
HETATM   31  C   UNL     1      -0.210  14.447  23.457  0.00  0.00     0.158 C 
HETATM   32  C   UNL     1       1.608  13.680  22.105  0.00  0.00     0.129 C 
HETATM   33  C   UNL     1       0.975  15.386  23.710  0.00  0.00     0.140 C 
HETATM   34  C   UNL     1       2.184  14.655  23.123  0.00  0.00     0.053 C 
HETATM   35  O   UNL     1       0.127  11.367  21.535  0.00  0.00    -0.266 OA
BRANCH  33  36
HETATM   36  O   UNL     1       1.077  15.618  25.118  0.00  0.00    -0.389 OA
HETATM   37  C   UNL     1      -0.064  15.216  25.854  0.00  0.00     0.202 C 
ENDBRANCH  33  36
ENDBRANCH   1  29
TORSDOF 6
ENDMDL
MODEL 9
REMARK VINA RESULT:    -7.352      2.307      3.484
REMARK INTER + INTRA:         -11.243
REMARK INTER:                 -10.611
REMARK INTRA:                  -0.632
REMARK UNBOUND:                -1.527
REMARK  6 active torsions:
REMARK  status: ('A' for Active; 'I' for Inactive)
REMARK    1  A    between atoms: O_2  and  C_3 
REMARK       I    between atoms: N_7  and  C_8 
REMARK    2  A    between atoms: C_8  and  C_10 
REMARK    3  A    between atoms: C_17  and  C_21 
REMARK    4  A    between atoms: C_18  and  O_20 
REMARK       I    between atoms: C_21  and  N_23 
REMARK    5  A    between atoms: N_23  and  C_25 
REMARK    6  A    between atoms: C_28  and  N_31 
ROOT
HETATM    1  C   UNL     1      -0.076   9.518  26.078  0.00  0.00     0.157 A 
HETATM    2  N   UNL     1       1.021   8.875  25.630  0.00  0.00    -0.168 NA
HETATM    3  N   UNL     1       1.017   9.063  24.309  0.00  0.00    -0.277 N 
HETATM    4  H   UNL     1       1.765   8.649  23.764  0.00  0.00     0.189 HD
HETATM    5  C   UNL     1      -0.779  10.121  24.974  0.00  0.00     0.029 A 
HETATM    6  C   UNL     1      -0.031   9.800  23.847  0.00  0.00     0.065 A 
HETATM    7  C   UNL     1      -1.947  10.892  24.801  0.00  0.00     0.036 A 
HETATM    8  C   UNL     1      -2.299  11.374  23.524  0.00  0.00     0.066 A 
HETATM    9  C   UNL     1      -1.550  10.944  22.415  0.00  0.00     0.083 A 
HETATM   10  C   UNL     1      -0.387  10.181  22.554  0.00  0.00     0.069 A 
ENDROOT
BRANCH   8  11
HETATM   11  C   UNL     1      -3.471  12.289  23.318  0.00  0.00     0.260 C 
HETATM   12  O   UNL     1      -4.575  11.740  23.214  0.00  0.00    -0.267 OA
HETATM   13  N   UNL     1      -3.313  13.690  23.283  0.00  0.00    -0.318 N 
HETATM   14  C   UNL     1      -4.495  14.541  23.222  0.00  0.00     0.159 C 
BRANCH  13  15
HETATM   15  C   UNL     1      -2.073  14.358  23.120  0.00  0.00     0.037 A 
HETATM   16  C   UNL     1      -1.583  14.632  21.844  0.00  0.00     0.032 A 
HETATM   17  C   UNL     1      -0.299  15.160  21.696  0.00  0.00     0.031 A 
HETATM   18  C   UNL     1       0.550  15.405  22.791  0.00  0.00     0.030 A 
HETATM   19  C   UNL     1       0.004  15.197  24.064  0.00  0.00     0.031 A 
HETATM   20  C   UNL     1      -1.303  14.706  24.231  0.00  0.00     0.032 A 
BRANCH  18  21
HETATM   21  N   UNL     1       1.847  15.831  22.571  0.00  0.00    -0.377 N 
HETATM   22  C   UNL     1       3.046  15.009  22.811  0.00  0.00     0.149 C 
HETATM   23  C   UNL     1       3.763  14.662  21.499  0.00  0.00     0.187 C 
HETATM   24  O   UNL     1       4.057  15.852  20.750  0.00  0.00    -0.388 OA
HETATM   25  C   UNL     1       2.832  16.529  20.431  0.00  0.00     0.187 C 
HETATM   26  C   UNL     1       2.076  16.983  21.676  0.00  0.00     0.149 C 
ENDBRANCH  18  21
ENDBRANCH  13  15
ENDBRANCH   8  11
BRANCH   9  27
HETATM   27  O   UNL     1      -1.925  11.192  21.117  0.00  0.00    -0.360 OA
HETATM   28  H   UNL     1      -2.872  10.941  21.036  0.00  0.00     0.217 HD
ENDBRANCH   9  27
BRANCH   1  29
HETATM   29  C   UNL     1      -0.473   9.542  27.513  0.00  0.00     0.275 C 
HETATM   30  N   UNL     1       0.333   8.885  28.446  0.00  0.00    -0.344 N 
HETATM   31  C   UNL     1       1.640   8.296  28.197  0.00  0.00     0.158 C 
HETATM   32  C   UNL     1      -0.025   8.779  29.845  0.00  0.00     0.129 C 
HETATM   33  C   UNL     1       2.217   7.897  29.560  0.00  0.00     0.140 C 
HETATM   34  C   UNL     1       1.286   8.550  30.584  0.00  0.00     0.053 C 
HETATM   35  O   UNL     1      -1.490  10.137  27.876  0.00  0.00    -0.266 OA
BRANCH  33  36
HETATM   36  O   UNL     1       3.567   8.365  29.636  0.00  0.00    -0.389 OA
HETATM   37  C   UNL     1       4.267   8.309  28.406  0.00  0.00     0.202 C 
ENDBRANCH  33  36
ENDBRANCH   1  29
TORSDOF 6
ENDMDL
