MODEL 1
REMARK VINA RESULT:    -8.674      0.000      0.000
REMARK INTER + INTRA:         -13.566
REMARK INTER:                 -11.743
REMARK INTRA:                  -1.823
REMARK UNBOUND:                -1.850
REMARK  7 active torsions:
REMARK  status: ('A' for Active; 'I' for Inactive)
REMARK    1  A    between atoms: C_7  and  C_8 
REMARK    2  A    between atoms: C_8  and  C_9 
REMARK    3  A    between atoms: C_16  and  C_20 
REMARK    4  A    between atoms: C_17  and  O_19 
REMARK       I    between atoms: C_20  and  N_22 
REMARK    5  A    between atoms: N_22  and  C_24 
REMARK    6  A    between atoms: C_27  and  N_30 
REMARK    7  A    between atoms: C_35  and  O_36 
ROOT
HETATM    1  C   UNL     1       7.267  15.096  23.107  0.00  0.00     0.071 A 
HETATM    2  N   UNL     1       8.221  15.334  24.022  0.00  0.00    -0.178 NA
HETATM    3  N   UNL     1       8.955  14.209  24.030  0.00  0.00    -0.277 N 
HETATM    4  H   UNL     1       9.725  14.143  24.685  0.00  0.00     0.189 HD
HETATM    5  C   UNL     1       7.440  13.819  22.491  0.00  0.00     0.020 A 
HETATM    6  C   UNL     1       8.491  13.233  23.190  0.00  0.00     0.065 A 
HETATM    7  C   UNL     1       6.778  13.062  21.502  0.00  0.00     0.035 C 
HETATM    8  C   UNL     1       7.180  11.734  21.266  0.00  0.00     0.066 C 
HETATM    9  C   UNL     1       8.143  11.147  22.099  0.00  0.00     0.083 C 
HETATM   10  C   UNL     1       8.863  11.897  23.033  0.00  0.00     0.069 C 
ENDROOT
BRANCH   8  11
HETATM   11  C   UNL     1       6.550  10.934  20.174  0.00  0.00     0.260 C 
HETATM   12  O   UNL     1       6.852  11.274  19.025  0.00  0.00    -0.267 OA
HETATM   13  N   UNL     1       5.719   9.826  20.470  0.00  0.00    -0.318 N 
HETATM   14  C   UNL     1       5.419   8.898  19.390  0.00  0.00     0.159 C 
BRANCH  13  15
HETATM   15  C   UNL     1       5.061   9.607  21.722  0.00  0.00     0.037 C 
HETATM   16  C   UNL     1       5.149   8.378  22.368  0.00  0.00     0.032 C 
HETATM   17  C   UNL     1       4.367   8.102  23.490  0.00  0.00     0.031 C 
HETATM   18  C   UNL     1       3.459   9.016  24.028  0.00  0.00     0.032 C 
HETATM   19  C   UNL     1       3.501  10.300  23.462  0.00  0.00     0.031 C 
HETATM   20  C   UNL     1       4.291  10.600  22.337  0.00  0.00     0.032 C 
BRANCH  18  21
HETATM   21  N   UNL     1       2.541   8.669  24.997  0.00  0.00    -0.351 N 
HETATM   22  C   UNL     1       1.095   8.911  24.809  0.00  0.00     0.152 C 
HETATM   23  C   UNL     1       0.313   7.645  25.193  0.00  0.00     0.187 C 
HETATM   24  O   UNL     1       0.567   7.269  26.557  0.00  0.00    -0.385 OA
HETATM   25  C   UNL     1       1.971   7.056  26.765  0.00  0.00     0.221 C 
HETATM   26  C   UNL     1       2.841   8.282  26.392  0.00  0.00     0.244 C 
BRANCH  26  27
HETATM   27  O   UNL     1       4.197   7.927  26.600  0.00  0.00    -0.374 OA
HETATM   28  H   UNL     1       4.704   8.473  25.974  0.00  0.00     0.212 HD
ENDBRANCH  26  27
ENDBRANCH  18  21
ENDBRANCH  13  15
ENDBRANCH   8  11
BRANCH   9  29
HETATM   29  O   UNL     1       8.411   9.802  22.089  0.00  0.00    -0.360 OA
HETATM   30  H   UNL     1       8.356   9.508  21.152  0.00  0.00     0.217 HD
ENDBRANCH   9  29
BRANCH   1  31
HETATM   31  C   UNL     1       6.063  15.966  23.041  0.00  0.00     0.100 C 
BRANCH  31  32
HETATM   32  C   UNL     1       4.875  15.320  23.710  0.00  0.00    -0.052 A 
HETATM   33  C   UNL     1       4.020  14.492  22.962  0.00  0.00     0.014 A 
HETATM   34  C   UNL     1       2.745  14.159  23.437  0.00  0.00    -0.061 A 
HETATM   35  C   UNL     1       1.755  13.453  22.557  0.00  0.00     0.048 C 
HETATM   36  C   UNL     1       2.356  14.601  24.707  0.00  0.00     0.007 A 
HETATM   37  C   UNL     1       3.230  15.359  25.488  0.00  0.00     0.001 A 
HETATM   38  C   UNL     1       4.485  15.714  24.996  0.00  0.00     0.007 A 
ENDBRANCH  31  32
ENDBRANCH   1  31
TORSDOF 7
ENDMDL
MODEL 2
REMARK VINA RESULT:    -8.501      3.116      6.219
REMARK INTER + INTRA:         -13.333
REMARK INTER:                 -10.744
REMARK INTRA:                  -2.589
REMARK UNBOUND:                -1.850
REMARK  7 active torsions:
REMARK  status: ('A' for Active; 'I' for Inactive)
REMARK    1  A    between atoms: C_7  and  C_8 
REMARK    2  A    between atoms: C_8  and  C_9 
REMARK    3  A    between atoms: C_16  and  C_20 
REMARK    4  A    between atoms: C_17  and  O_19 
REMARK       I    between atoms: C_20  and  N_22 
REMARK    5  A    between atoms: N_22  and  C_24 
REMARK    6  A    between atoms: C_27  and  N_30 
REMARK    7  A    between atoms: C_35  and  O_36 
ROOT
HETATM    1  C   UNL     1       8.043   8.461  23.682  0.00  0.00     0.071 A 
HETATM    2  N   UNL     1       9.165   7.754  23.895  0.00  0.00    -0.178 NA
HETATM    3  N   UNL     1      10.068   8.678  24.263  0.00  0.00    -0.277 N 
HETATM    4  H   UNL     1      11.019   8.375  24.442  0.00  0.00     0.189 HD
HETATM    5  C   UNL     1       8.233   9.846  23.976  0.00  0.00     0.020 A 
HETATM    6  C   UNL     1       9.591   9.960  24.255  0.00  0.00     0.065 A 
HETATM    7  C   UNL     1       7.445  11.016  23.944  0.00  0.00     0.035 C 
HETATM    8  C   UNL     1       8.056  12.263  24.172  0.00  0.00     0.066 C 
HETATM    9  C   UNL     1       9.450  12.336  24.301  0.00  0.00     0.083 C 
HETATM   10  C   UNL     1      10.239  11.188  24.410  0.00  0.00     0.069 C 
ENDROOT
BRANCH   8  11
HETATM   11  C   UNL     1       7.236  13.510  24.220  0.00  0.00     0.260 C 
HETATM   12  O   UNL     1       7.268  14.125  25.292  0.00  0.00    -0.267 OA
HETATM   13  N   UNL     1       6.534  13.965  23.078  0.00  0.00    -0.318 N 
HETATM   14  C   UNL     1       6.043  15.335  23.086  0.00  0.00     0.159 C 
BRANCH  13  15
HETATM   15  C   UNL     1       6.171  13.147  21.960  0.00  0.00     0.037 C 
HETATM   16  C   UNL     1       4.862  12.709  21.793  0.00  0.00     0.032 C 
HETATM   17  C   UNL     1       4.543  11.769  20.812  0.00  0.00     0.031 C 
HETATM   18  C   UNL     1       5.491  11.212  19.953  0.00  0.00     0.032 C 
HETATM   19  C   UNL     1       6.771  11.784  20.030  0.00  0.00     0.031 C 
HETATM   20  C   UNL     1       7.110  12.740  21.006  0.00  0.00     0.032 C 
BRANCH  18  21
HETATM   21  N   UNL     1       5.214  10.136  19.136  0.00  0.00    -0.351 N 
HETATM   22  C   UNL     1       5.596   8.762  19.518  0.00  0.00     0.152 C 
HETATM   23  C   UNL     1       4.403   7.820  19.291  0.00  0.00     0.187 C 
HETATM   24  O   UNL     1       3.979   7.839  17.918  0.00  0.00    -0.385 OA
HETATM   25  C   UNL     1       3.629   9.174  17.520  0.00  0.00     0.221 C 
HETATM   26  C   UNL     1       4.774  10.197  17.726  0.00  0.00     0.244 C 
BRANCH  26  27
HETATM   27  O   UNL     1       4.288  11.470  17.340  0.00  0.00    -0.374 OA
HETATM   28  H   UNL     1       4.768  11.691  16.523  0.00  0.00     0.212 HD
ENDBRANCH  26  27
ENDBRANCH  18  21
ENDBRANCH  13  15
ENDBRANCH   8  11
BRANCH   9  29
HETATM   29  O   UNL     1      10.135  13.524  24.284  0.00  0.00    -0.360 OA
HETATM   30  H   UNL     1       9.755  14.081  24.998  0.00  0.00     0.217 HD
ENDBRANCH   9  29
BRANCH   1  31
HETATM   31  C   UNL     1       6.906   7.850  22.944  0.00  0.00     0.100 C 
BRANCH  31  32
HETATM   32  C   UNL     1       5.615   7.973  23.714  0.00  0.00    -0.052 A 
HETATM   33  C   UNL     1       4.686   8.967  23.361  0.00  0.00     0.014 A 
HETATM   34  C   UNL     1       3.660   9.337  24.241  0.00  0.00    -0.061 A 
HETATM   35  C   UNL     1       2.799  10.533  23.959  0.00  0.00     0.048 C 
HETATM   36  C   UNL     1       3.523   8.650  25.453  0.00  0.00     0.007 A 
HETATM   37  C   UNL     1       4.395   7.609  25.776  0.00  0.00     0.001 A 
HETATM   38  C   UNL     1       5.434   7.268  24.911  0.00  0.00     0.007 A 
ENDBRANCH  31  32
ENDBRANCH   1  31
TORSDOF 7
ENDMDL
MODEL 3
REMARK VINA RESULT:    -8.428      2.512      4.203
REMARK INTER + INTRA:         -13.235
REMARK INTER:                 -11.532
REMARK INTRA:                  -1.703
REMARK UNBOUND:                -1.850
REMARK  7 active torsions:
REMARK  status: ('A' for Active; 'I' for Inactive)
REMARK    1  A    between atoms: C_7  and  C_8 
REMARK    2  A    between atoms: C_8  and  C_9 
REMARK    3  A    between atoms: C_16  and  C_20 
REMARK    4  A    between atoms: C_17  and  O_19 
REMARK       I    between atoms: C_20  and  N_22 
REMARK    5  A    between atoms: N_22  and  C_24 
REMARK    6  A    between atoms: C_27  and  N_30 
REMARK    7  A    between atoms: C_35  and  O_36 
ROOT
HETATM    1  C   UNL     1       3.430  13.988  23.166  0.00  0.00     0.071 A 
HETATM    2  N   UNL     1       2.871  14.834  24.047  0.00  0.00    -0.178 NA
HETATM    3  N   UNL     1       3.889  15.620  24.436  0.00  0.00    -0.277 N 
HETATM    4  H   UNL     1       3.710  16.324  25.142  0.00  0.00     0.189 HD
HETATM    5  C   UNL     1       4.811  14.285  22.958  0.00  0.00     0.020 A 
HETATM    6  C   UNL     1       5.095  15.290  23.877  0.00  0.00     0.065 A 
HETATM    7  C   UNL     1       5.864  13.761  22.178  0.00  0.00     0.035 C 
HETATM    8  C   UNL     1       7.169  14.251  22.367  0.00  0.00     0.066 C 
HETATM    9  C   UNL     1       7.424  15.156  23.407  0.00  0.00     0.083 C 
HETATM   10  C   UNL     1       6.389  15.742  24.141  0.00  0.00     0.069 C 
ENDROOT
BRANCH   8  11
HETATM   11  C   UNL     1       8.290  13.772  21.504  0.00  0.00     0.260 C 
HETATM   12  O   UNL     1       8.787  14.623  20.758  0.00  0.00    -0.267 OA
HETATM   13  N   UNL     1       8.771  12.444  21.605  0.00  0.00    -0.318 N 
HETATM   14  C   UNL     1      10.058  12.142  20.999  0.00  0.00     0.159 C 
BRANCH  13  15
HETATM   15  C   UNL     1       8.037  11.347  22.162  0.00  0.00     0.037 C 
HETATM   16  C   UNL     1       7.053  10.701  21.421  0.00  0.00     0.032 C 
HETATM   17  C   UNL     1       6.215   9.757  22.017  0.00  0.00     0.031 C 
HETATM   18  C   UNL     1       6.299   9.407  23.365  0.00  0.00     0.032 C 
HETATM   19  C   UNL     1       7.397   9.949  24.053  0.00  0.00     0.031 C 
HETATM   20  C   UNL     1       8.258  10.894  23.466  0.00  0.00     0.032 C 
BRANCH  18  21
HETATM   21  N   UNL     1       5.342   8.640  23.996  0.00  0.00    -0.351 N 
HETATM   22  C   UNL     1       5.288   7.175  23.815  0.00  0.00     0.152 C 
HETATM   23  C   UNL     1       5.135   6.499  25.187  0.00  0.00     0.187 C 
HETATM   24  O   UNL     1       3.947   6.946  25.859  0.00  0.00    -0.385 OA
HETATM   25  C   UNL     1       3.969   8.373  26.019  0.00  0.00     0.221 C 
HETATM   26  C   UNL     1       4.131   9.139  24.683  0.00  0.00     0.244 C 
BRANCH  26  27
HETATM   27  O   UNL     1       4.183  10.522  24.984  0.00  0.00    -0.374 OA
HETATM   28  H   UNL     1       4.314  10.570  25.948  0.00  0.00     0.212 HD
ENDBRANCH  26  27
ENDBRANCH  18  21
ENDBRANCH  13  15
ENDBRANCH   8  11
BRANCH   9  29
HETATM   29  O   UNL     1       8.693  15.492  23.804  0.00  0.00    -0.360 OA
HETATM   30  H   UNL     1       9.146  14.654  24.047  0.00  0.00     0.217 HD
ENDBRANCH   9  29
BRANCH   1  31
HETATM   31  C   UNL     1       2.707  12.753  22.758  0.00  0.00     0.100 C 
BRANCH  31  32
HETATM   32  C   UNL     1       1.265  13.040  22.423  0.00  0.00    -0.052 A 
HETATM   33  C   UNL     1       0.257  12.698  23.341  0.00  0.00     0.014 A 
HETATM   34  C   UNL     1      -1.085  12.626  22.941  0.00  0.00    -0.061 A 
HETATM   35  C   UNL     1      -2.131  12.062  23.857  0.00  0.00     0.048 C 
HETATM   36  C   UNL     1      -1.422  12.974  21.629  0.00  0.00     0.007 A 
HETATM   37  C   UNL     1      -0.436  13.391  20.734  0.00  0.00     0.001 A 
HETATM   38  C   UNL     1       0.901  13.428  21.128  0.00  0.00     0.007 A 
ENDBRANCH  31  32
ENDBRANCH   1  31
TORSDOF 7
ENDMDL
MODEL 4
REMARK VINA RESULT:    -8.385      3.009      6.419
REMARK INTER + INTRA:         -13.177
REMARK INTER:                 -11.553
REMARK INTRA:                  -1.624
REMARK UNBOUND:                -1.850
REMARK  7 active torsions:
REMARK  status: ('A' for Active; 'I' for Inactive)
REMARK    1  A    between atoms: C_7  and  C_8 
REMARK    2  A    between atoms: C_8  and  C_9 
REMARK    3  A    between atoms: C_16  and  C_20 
REMARK    4  A    between atoms: C_17  and  O_19 
REMARK       I    between atoms: C_20  and  N_22 
REMARK    5  A    between atoms: N_22  and  C_24 
REMARK    6  A    between atoms: C_27  and  N_30 
REMARK    7  A    between atoms: C_35  and  O_36 
ROOT
HETATM    1  C   UNL     1       8.956  13.856  21.651  0.00  0.00     0.071 A 
HETATM    2  N   UNL     1       9.574  15.028  21.436  0.00  0.00    -0.178 NA
HETATM    3  N   UNL     1       8.756  15.936  21.993  0.00  0.00    -0.277 N 
HETATM    4  H   UNL     1       9.003  16.916  21.919  0.00  0.00     0.189 HD
HETATM    5  C   UNL     1       7.756  14.026  22.406  0.00  0.00     0.020 A 
HETATM    6  C   UNL     1       7.610  15.405  22.523  0.00  0.00     0.065 A 
HETATM    7  C   UNL     1       6.739  13.191  22.914  0.00  0.00     0.035 C 
HETATM    8  C   UNL     1       5.600  13.772  23.501  0.00  0.00     0.066 C 
HETATM    9  C   UNL     1       5.436  15.164  23.459  0.00  0.00     0.083 C 
HETATM   10  C   UNL     1       6.460  16.012  23.030  0.00  0.00     0.069 C 
ENDROOT
BRANCH   8  11
HETATM   11  C   UNL     1       4.543  12.914  24.115  0.00  0.00     0.260 C 
HETATM   12  O   UNL     1       4.309  13.134  25.309  0.00  0.00    -0.267 OA
HETATM   13  N   UNL     1       3.830  11.968  23.339  0.00  0.00    -0.318 N 
HETATM   14  C   UNL     1       2.606  11.417  23.900  0.00  0.00     0.159 C 
BRANCH  13  15
HETATM   15  C   UNL     1       4.280  11.427  22.091  0.00  0.00     0.037 C 
HETATM   16  C   UNL     1       4.266  12.200  20.935  0.00  0.00     0.032 C 
HETATM   17  C   UNL     1       4.530  11.627  19.690  0.00  0.00     0.031 C 
HETATM   18  C   UNL     1       4.813  10.270  19.520  0.00  0.00     0.032 C 
HETATM   19  C   UNL     1       4.979   9.544  20.710  0.00  0.00     0.031 C 
HETATM   20  C   UNL     1       4.728  10.107  21.975  0.00  0.00     0.032 C 
BRANCH  18  21
HETATM   21  N   UNL     1       4.862   9.670  18.280  0.00  0.00    -0.351 N 
HETATM   22  C   UNL     1       6.019   8.851  17.867  0.00  0.00     0.152 C 
HETATM   23  C   UNL     1       5.517   7.535  17.250  0.00  0.00     0.187 C 
HETATM   24  O   UNL     1       4.670   7.781  16.116  0.00  0.00    -0.385 OA
HETATM   25  C   UNL     1       3.553   8.600  16.493  0.00  0.00     0.221 C 
HETATM   26  C   UNL     1       3.967   9.948  17.136  0.00  0.00     0.244 C 
BRANCH  26  27
HETATM   27  O   UNL     1       2.782  10.633  17.499  0.00  0.00    -0.374 OA
HETATM   28  H   UNL     1       2.996  11.579  17.413  0.00  0.00     0.212 HD
ENDBRANCH  26  27
ENDBRANCH  18  21
ENDBRANCH  13  15
ENDBRANCH   8  11
BRANCH   9  29
HETATM   29  O   UNL     1       4.257  15.782  23.789  0.00  0.00    -0.360 OA
HETATM   30  H   UNL     1       4.062  16.425  23.072  0.00  0.00     0.217 HD
ENDBRANCH   9  29
BRANCH   1  31
HETATM   31  C   UNL     1       9.377  12.642  20.900  0.00  0.00     0.100 C 
BRANCH  31  32
HETATM   32  C   UNL     1       9.704  11.501  21.830  0.00  0.00    -0.052 A 
HETATM   33  C   UNL     1       8.729  10.527  22.106  0.00  0.00     0.014 A 
HETATM   34  C   UNL     1       8.865   9.665  23.203  0.00  0.00    -0.061 A 
HETATM   35  C   UNL     1       7.735   8.771  23.623  0.00  0.00     0.048 C 
HETATM   36  C   UNL     1      10.025   9.734  23.982  0.00  0.00     0.007 A 
HETATM   37  C   UNL     1      11.033  10.646  23.667  0.00  0.00     0.001 A 
HETATM   38  C   UNL     1      10.878  11.523  22.594  0.00  0.00     0.007 A 
ENDBRANCH  31  32
ENDBRANCH   1  31
TORSDOF 7
ENDMDL
MODEL 5
REMARK VINA RESULT:    -8.340      3.207      6.625
REMARK INTER + INTRA:         -13.116
REMARK INTER:                 -11.647
REMARK INTRA:                  -1.469
REMARK UNBOUND:                -1.850
REMARK  7 active torsions:
REMARK  status: ('A' for Active; 'I' for Inactive)
REMARK    1  A    between atoms: C_7  and  C_8 
REMARK    2  A    between atoms: C_8  and  C_9 
REMARK    3  A    between atoms: C_16  and  C_20 
REMARK    4  A    between atoms: C_17  and  O_19 
REMARK       I    between atoms: C_20  and  N_22 
REMARK    5  A    between atoms: N_22  and  C_24 
REMARK    6  A    between atoms: C_27  and  N_30 
REMARK    7  A    between atoms: C_35  and  O_36 
ROOT
HETATM    1  C   UNL     1       6.267  10.719  19.737  0.00  0.00     0.071 A 
HETATM    2  N   UNL     1       6.102  10.852  18.411  0.00  0.00    -0.178 NA
HETATM    3  N   UNL     1       5.677   9.641  18.012  0.00  0.00    -0.277 N 
HETATM    4  H   UNL     1       5.520   9.490  17.022  0.00  0.00     0.189 HD
HETATM    5  C   UNL     1       5.886   9.418  20.185  0.00  0.00     0.020 A 
HETATM    6  C   UNL     1       5.602   8.716  19.018  0.00  0.00     0.065 A 
HETATM    7  C   UNL     1       5.841   8.732  21.417  0.00  0.00     0.035 C 
HETATM    8  C   UNL     1       5.535   7.358  21.430  0.00  0.00     0.066 C 
HETATM    9  C   UNL     1       5.404   6.669  20.215  0.00  0.00     0.083 C 
HETATM   10  C   UNL     1       5.371   7.339  18.990  0.00  0.00     0.069 C 
ENDROOT
BRANCH   8  11
HETATM   11  C   UNL     1       5.405   6.623  22.723  0.00  0.00     0.260 C 
HETATM   12  O   UNL     1       4.399   5.914  22.831  0.00  0.00    -0.267 OA
HETATM   13  N   UNL     1       6.417   6.702  23.711  0.00  0.00    -0.318 N 
HETATM   14  C   UNL     1       6.397   5.716  24.780  0.00  0.00     0.159 C 
BRANCH  13  15
HETATM   15  C   UNL     1       7.394   7.746  23.801  0.00  0.00     0.037 C 
HETATM   16  C   UNL     1       7.012   9.057  24.064  0.00  0.00     0.032 C 
HETATM   17  C   UNL     1       7.933  10.101  23.974  0.00  0.00     0.031 C 
HETATM   18  C   UNL     1       9.269   9.909  23.617  0.00  0.00     0.032 C 
HETATM   19  C   UNL     1       9.670   8.568  23.513  0.00  0.00     0.031 C 
HETATM   20  C   UNL     1       8.758   7.501  23.611  0.00  0.00     0.032 C 
BRANCH  18  21
HETATM   21  N   UNL     1      10.118  10.956  23.323  0.00  0.00    -0.351 N 
HETATM   22  C   UNL     1      10.538  11.238  21.935  0.00  0.00     0.152 C 
HETATM   23  C   UNL     1      10.389  12.741  21.654  0.00  0.00     0.187 C 
HETATM   24  O   UNL     1      11.178  13.523  22.566  0.00  0.00    -0.385 OA
HETATM   25  C   UNL     1      10.802  13.241  23.923  0.00  0.00     0.221 C 
HETATM   26  C   UNL     1      10.911  11.741  24.293  0.00  0.00     0.244 C 
BRANCH  26  27
HETATM   27  O   UNL     1      10.472  11.595  25.631  0.00  0.00    -0.374 OA
HETATM   28  H   UNL     1      10.568  10.647  25.831  0.00  0.00     0.212 HD
ENDBRANCH  26  27
ENDBRANCH  18  21
ENDBRANCH  13  15
ENDBRANCH   8  11
BRANCH   9  29
HETATM   29  O   UNL     1       5.346   5.301  20.142  0.00  0.00    -0.360 OA
HETATM   30  H   UNL     1       4.946   5.079  19.272  0.00  0.00     0.217 HD
ENDBRANCH   9  29
BRANCH   1  31
HETATM   31  C   UNL     1       7.041  11.737  20.498  0.00  0.00     0.100 C 
BRANCH  31  32
HETATM   32  C   UNL     1       6.132  12.706  21.210  0.00  0.00    -0.052 A 
HETATM   33  C   UNL     1       6.671  13.861  21.801  0.00  0.00     0.014 A 
HETATM   34  C   UNL     1       5.941  14.594  22.746  0.00  0.00    -0.061 A 
HETATM   35  C   UNL     1       6.587  15.698  23.530  0.00  0.00     0.048 C 
HETATM   36  C   UNL     1       4.630  14.204  23.043  0.00  0.00     0.007 A 
HETATM   37  C   UNL     1       4.060  13.103  22.401  0.00  0.00     0.001 A 
HETATM   38  C   UNL     1       4.803  12.359  21.486  0.00  0.00     0.007 A 
ENDBRANCH  31  32
ENDBRANCH   1  31
TORSDOF 7
ENDMDL
MODEL 6
REMARK VINA RESULT:    -8.280      2.129      3.176
REMARK INTER + INTRA:         -13.034
REMARK INTER:                 -11.118
REMARK INTRA:                  -1.916
REMARK UNBOUND:                -1.850
REMARK  7 active torsions:
REMARK  status: ('A' for Active; 'I' for Inactive)
REMARK    1  A    between atoms: C_7  and  C_8 
REMARK    2  A    between atoms: C_8  and  C_9 
REMARK    3  A    between atoms: C_16  and  C_20 
REMARK    4  A    between atoms: C_17  and  O_19 
REMARK       I    between atoms: C_20  and  N_22 
REMARK    5  A    between atoms: N_22  and  C_24 
REMARK    6  A    between atoms: C_27  and  N_30 
REMARK    7  A    between atoms: C_35  and  O_36 
ROOT
HETATM    1  C   UNL     1       9.126  12.499  25.139  0.00  0.00     0.071 A 
HETATM    2  N   UNL     1      10.367  12.323  25.622  0.00  0.00    -0.178 NA
HETATM    3  N   UNL     1      10.813  11.228  24.984  0.00  0.00    -0.277 N 
HETATM    4  H   UNL     1      11.733  10.876  25.222  0.00  0.00     0.189 HD
HETATM    5  C   UNL     1       8.810  11.529  24.141  0.00  0.00     0.020 A 
HETATM    6  C   UNL     1       9.896  10.660  24.141  0.00  0.00     0.065 A 
HETATM    7  C   UNL     1       7.704  11.232  23.317  0.00  0.00     0.035 C 
HETATM    8  C   UNL     1       7.720  10.059  22.538  0.00  0.00     0.066 C 
HETATM    9  C   UNL     1       8.773   9.146  22.689  0.00  0.00     0.083 C 
HETATM   10  C   UNL     1       9.911   9.452  23.441  0.00  0.00     0.069 C 
ENDROOT
BRANCH   8  11
HETATM   11  C   UNL     1       6.599   9.758  21.599  0.00  0.00     0.260 C 
HETATM   12  O   UNL     1       6.680  10.291  20.488  0.00  0.00    -0.267 OA
HETATM   13  N   UNL     1       5.563   8.864  21.965  0.00  0.00    -0.318 N 
HETATM   14  C   UNL     1       4.704   8.356  20.907  0.00  0.00     0.159 C 
BRANCH  13  15
HETATM   15  C   UNL     1       5.225   8.508  23.310  0.00  0.00     0.037 C 
HETATM   16  C   UNL     1       5.659   7.306  23.858  0.00  0.00     0.032 C 
HETATM   17  C   UNL     1       5.185   6.874  25.098  0.00  0.00     0.031 C 
HETATM   18  C   UNL     1       4.261   7.597  25.854  0.00  0.00     0.032 C 
HETATM   19  C   UNL     1       3.960   8.876  25.361  0.00  0.00     0.031 C 
HETATM   20  C   UNL     1       4.436   9.334  24.118  0.00  0.00     0.032 C 
BRANCH  18  21
HETATM   21  N   UNL     1       3.637   7.072  26.967  0.00  0.00    -0.351 N 
HETATM   22  C   UNL     1       4.204   7.247  28.320  0.00  0.00     0.152 C 
HETATM   23  C   UNL     1       3.092   7.694  29.283  0.00  0.00     0.187 C 
HETATM   24  O   UNL     1       2.024   6.734  29.327  0.00  0.00    -0.385 OA
HETATM   25  C   UNL     1       1.479   6.531  28.014  0.00  0.00     0.221 C 
HETATM   26  C   UNL     1       2.535   6.087  26.971  0.00  0.00     0.244 C 
BRANCH  26  27
HETATM   27  O   UNL     1       1.881   5.966  25.721  0.00  0.00    -0.374 OA
HETATM   28  H   UNL     1       2.307   6.623  25.143  0.00  0.00     0.212 HD
ENDBRANCH  26  27
ENDBRANCH  18  21
ENDBRANCH  13  15
ENDBRANCH   8  11
BRANCH   9  29
HETATM   29  O   UNL     1       8.742   7.884  22.153  0.00  0.00    -0.360 OA
HETATM   30  H   UNL     1       9.346   7.889  21.378  0.00  0.00     0.217 HD
ENDBRANCH   9  29
BRANCH   1  31
HETATM   31  C   UNL     1       8.178  13.410  25.835  0.00  0.00     0.100 C 
BRANCH  31  32
HETATM   32  C   UNL     1       7.687  14.504  24.919  0.00  0.00    -0.052 A 
HETATM   33  C   UNL     1       6.375  14.989  25.054  0.00  0.00     0.014 A 
HETATM   34  C   UNL     1       5.776  15.736  24.032  0.00  0.00    -0.061 A 
HETATM   35  C   UNL     1       4.314  16.074  24.082  0.00  0.00     0.048 C 
HETATM   36  C   UNL     1       6.527  16.061  22.897  0.00  0.00     0.007 A 
HETATM   37  C   UNL     1       7.857  15.649  22.791  0.00  0.00     0.001 A 
HETATM   38  C   UNL     1       8.437  14.878  23.797  0.00  0.00     0.007 A 
ENDBRANCH  31  32
ENDBRANCH   1  31
TORSDOF 7
ENDMDL
MODEL 7
REMARK VINA RESULT:    -8.267      3.592      4.828
REMARK INTER + INTRA:         -13.017
REMARK INTER:                 -11.583
REMARK INTRA:                  -1.435
REMARK UNBOUND:                -1.850
REMARK  7 active torsions:
REMARK  status: ('A' for Active; 'I' for Inactive)
REMARK    1  A    between atoms: C_7  and  C_8 
REMARK    2  A    between atoms: C_8  and  C_9 
REMARK    3  A    between atoms: C_16  and  C_20 
REMARK    4  A    between atoms: C_17  and  O_19 
REMARK       I    between atoms: C_20  and  N_22 
REMARK    5  A    between atoms: N_22  and  C_24 
REMARK    6  A    between atoms: C_27  and  N_30 
REMARK    7  A    between atoms: C_35  and  O_36 
ROOT
HETATM    1  C   UNL     1       8.239  14.286  22.453  0.00  0.00     0.071 A 
HETATM    2  N   UNL     1       8.530  15.043  21.383  0.00  0.00    -0.178 NA
HETATM    3  N   UNL     1       9.291  14.245  20.616  0.00  0.00    -0.277 N 
HETATM    4  H   UNL     1       9.667  14.623  19.754  0.00  0.00     0.189 HD
HETATM    5  C   UNL     1       8.781  12.971  22.328  0.00  0.00     0.020 A 
HETATM    6  C   UNL     1       9.542  13.016  21.165  0.00  0.00     0.065 A 
HETATM    7  C   UNL     1       8.796  11.792  23.104  0.00  0.00     0.035 C 
HETATM    8  C   UNL     1       9.593  10.708  22.693  0.00  0.00     0.066 C 
HETATM    9  C   UNL     1      10.453  10.860  21.595  0.00  0.00     0.083 C 
HETATM   10  C   UNL     1      10.401  11.988  20.772  0.00  0.00     0.069 C 
ENDROOT
BRANCH   8  11
HETATM   11  C   UNL     1       9.570   9.421  23.450  0.00  0.00     0.260 C 
HETATM   12  O   UNL     1      10.560   9.204  24.158  0.00  0.00    -0.267 OA
HETATM   13  N   UNL     1       8.447   8.561  23.391  0.00  0.00    -0.318 N 
HETATM   14  C   UNL     1       8.342   7.514  24.395  0.00  0.00     0.159 C 
BRANCH  13  15
HETATM   15  C   UNL     1       7.461   8.572  22.352  0.00  0.00     0.037 C 
HETATM   16  C   UNL     1       7.310   7.481  21.503  0.00  0.00     0.032 C 
HETATM   17  C   UNL     1       6.482   7.557  20.382  0.00  0.00     0.031 C 
HETATM   18  C   UNL     1       5.767   8.706  20.040  0.00  0.00     0.032 C 
HETATM   19  C   UNL     1       5.807   9.737  20.992  0.00  0.00     0.031 C 
HETATM   20  C   UNL     1       6.628   9.674  22.133  0.00  0.00     0.032 C 
BRANCH  18  21
HETATM   21  N   UNL     1       5.124   8.848  18.829  0.00  0.00    -0.351 N 
HETATM   22  C   UNL     1       4.289   7.765  18.269  0.00  0.00     0.152 C 
HETATM   23  C   UNL     1       2.953   8.351  17.785  0.00  0.00     0.187 C 
HETATM   24  O   UNL     1       3.160   9.365  16.788  0.00  0.00    -0.385 OA
HETATM   25  C   UNL     1       3.993  10.413  17.305  0.00  0.00     0.221 C 
HETATM   26  C   UNL     1       5.362   9.911  17.828  0.00  0.00     0.244 C 
BRANCH  26  27
HETATM   27  O   UNL     1       6.060  11.028  18.348  0.00  0.00    -0.374 OA
HETATM   28  H   UNL     1       5.851  11.764  17.745  0.00  0.00     0.212 HD
ENDBRANCH  26  27
ENDBRANCH  18  21
ENDBRANCH  13  15
ENDBRANCH   8  11
BRANCH   9  29
HETATM   29  O   UNL     1      11.425   9.945  21.283  0.00  0.00    -0.360 OA
HETATM   30  H   UNL     1      12.203  10.152  21.847  0.00  0.00     0.217 HD
ENDBRANCH   9  29
BRANCH   1  31
HETATM   31  C   UNL     1       7.692  14.916  23.686  0.00  0.00     0.100 C 
BRANCH  31  32
HETATM   32  C   UNL     1       6.189  14.809  23.741  0.00  0.00    -0.052 A 
HETATM   33  C   UNL     1       5.543  13.732  23.111  0.00  0.00     0.014 A 
HETATM   34  C   UNL     1       4.168  13.773  22.843  0.00  0.00    -0.061 A 
HETATM   35  C   UNL     1       3.518  12.725  21.989  0.00  0.00     0.048 C 
HETATM   36  C   UNL     1       3.424  14.875  23.281  0.00  0.00     0.007 A 
HETATM   37  C   UNL     1       4.045  15.913  23.977  0.00  0.00     0.001 A 
HETATM   38  C   UNL     1       5.419  15.881  24.211  0.00  0.00     0.007 A 
ENDBRANCH  31  32
ENDBRANCH   1  31
TORSDOF 7
ENDMDL
MODEL 8
REMARK VINA RESULT:    -8.255      3.403      5.959
REMARK INTER + INTRA:         -13.001
REMARK INTER:                 -12.120
REMARK INTRA:                  -0.881
REMARK UNBOUND:                -1.850
REMARK  7 active torsions:
REMARK  status: ('A' for Active; 'I' for Inactive)
REMARK    1  A    between atoms: C_7  and  C_8 
REMARK    2  A    between atoms: C_8  and  C_9 
REMARK    3  A    between atoms: C_16  and  C_20 
REMARK    4  A    between atoms: C_17  and  O_19 
REMARK       I    between atoms: C_20  and  N_22 
REMARK    5  A    between atoms: N_22  and  C_24 
REMARK    6  A    between atoms: C_27  and  N_30 
REMARK    7  A    between atoms: C_35  and  O_36 
ROOT
HETATM    1  C   UNL     1       2.759  13.775  23.360  0.00  0.00     0.071 A 
HETATM    2  N   UNL     1       2.308  15.029  23.196  0.00  0.00    -0.178 NA
HETATM    3  N   UNL     1       3.409  15.790  23.309  0.00  0.00    -0.277 N 
HETATM    4  H   UNL     1       3.305  16.797  23.257  0.00  0.00     0.189 HD
HETATM    5  C   UNL     1       4.177  13.745  23.525  0.00  0.00     0.020 A 
HETATM    6  C   UNL     1       4.549  15.084  23.585  0.00  0.00     0.065 A 
HETATM    7  C   UNL     1       5.163  12.757  23.724  0.00  0.00     0.035 C 
HETATM    8  C   UNL     1       6.486  13.149  24.000  0.00  0.00     0.066 C 
HETATM    9  C   UNL     1       6.776  14.507  24.196  0.00  0.00     0.083 C 
HETATM   10  C   UNL     1       5.835  15.506  23.932  0.00  0.00     0.069 C 
ENDROOT
BRANCH   8  11
HETATM   11  C   UNL     1       7.566  12.128  24.140  0.00  0.00     0.260 C 
HETATM   12  O   UNL     1       8.406  12.360  25.016  0.00  0.00    -0.267 OA
HETATM   13  N   UNL     1       7.562  10.951  23.352  0.00  0.00    -0.318 N 
HETATM   14  C   UNL     1       8.428   9.858  23.764  0.00  0.00     0.159 C 
BRANCH  13  15
HETATM   15  C   UNL     1       6.854  10.795  22.117  0.00  0.00     0.037 C 
HETATM   16  C   UNL     1       5.773   9.924  22.021  0.00  0.00     0.032 C 
HETATM   17  C   UNL     1       5.198   9.634  20.784  0.00  0.00     0.031 C 
HETATM   18  C   UNL     1       5.657  10.178  19.583  0.00  0.00     0.032 C 
HETATM   19  C   UNL     1       6.639  11.172  19.718  0.00  0.00     0.031 C 
HETATM   20  C   UNL     1       7.224  11.486  20.959  0.00  0.00     0.032 C 
BRANCH  18  21
HETATM   21  N   UNL     1       5.229   9.729  18.351  0.00  0.00    -0.351 N 
HETATM   22  C   UNL     1       5.888   8.593  17.676  0.00  0.00     0.152 C 
HETATM   23  C   UNL     1       4.818   7.617  17.161  0.00  0.00     0.187 C 
HETATM   24  O   UNL     1       3.918   8.265  16.248  0.00  0.00    -0.385 OA
HETATM   25  C   UNL     1       3.288   9.390  16.879  0.00  0.00     0.221 C 
HETATM   26  C   UNL     1       4.295  10.425  17.440  0.00  0.00     0.244 C 
BRANCH  26  27
HETATM   27  O   UNL     1       3.551  11.452  18.071  0.00  0.00    -0.374 OA
HETATM   28  H   UNL     1       3.372  12.105  17.371  0.00  0.00     0.212 HD
ENDBRANCH  26  27
ENDBRANCH  18  21
ENDBRANCH  13  15
ENDBRANCH   8  11
BRANCH   9  29
HETATM   29  O   UNL     1       7.975  14.944  24.699  0.00  0.00    -0.360 OA
HETATM   30  H   UNL     1       8.419  14.162  25.094  0.00  0.00     0.217 HD
ENDBRANCH   9  29
BRANCH   1  31
HETATM   31  C   UNL     1       1.802  12.669  23.632  0.00  0.00     0.100 C 
BRANCH  31  32
HETATM   32  C   UNL     1       0.460  12.928  22.995  0.00  0.00    -0.052 A 
HETATM   33  C   UNL     1      -0.716  12.656  23.715  0.00  0.00     0.014 A 
HETATM   34  C   UNL     1      -1.952  12.553  23.062  0.00  0.00    -0.061 A 
HETATM   35  C   UNL     1      -3.168  12.059  23.790  0.00  0.00     0.048 C 
HETATM   36  C   UNL     1      -2.016  12.799  21.686  0.00  0.00     0.007 A 
HETATM   37  C   UNL     1      -0.864  13.146  20.978  0.00  0.00     0.001 A 
HETATM   38  C   UNL     1       0.367  13.215  21.628  0.00  0.00     0.007 A 
ENDBRANCH  31  32
ENDBRANCH   1  31
TORSDOF 7
ENDMDL
MODEL 9
REMARK VINA RESULT:    -8.136      2.215      3.203
REMARK INTER + INTRA:         -12.840
REMARK INTER:                 -10.989
REMARK INTRA:                  -1.850
REMARK UNBOUND:                -1.850
REMARK  7 active torsions:
REMARK  status: ('A' for Active; 'I' for Inactive)
REMARK    1  A    between atoms: C_7  and  C_8 
REMARK    2  A    between atoms: C_8  and  C_9 
REMARK    3  A    between atoms: C_16  and  C_20 
REMARK    4  A    between atoms: C_17  and  O_19 
REMARK       I    between atoms: C_20  and  N_22 
REMARK    5  A    between atoms: N_22  and  C_24 
REMARK    6  A    between atoms: C_27  and  N_30 
REMARK    7  A    between atoms: C_35  and  O_36 
ROOT
HETATM    1  C   UNL     1       8.982  12.476  25.189  0.00  0.00     0.071 A 
HETATM    2  N   UNL     1      10.224  12.351  25.684  0.00  0.00    -0.178 NA
HETATM    3  N   UNL     1      10.702  11.244  25.093  0.00  0.00    -0.277 N 
HETATM    4  H   UNL     1      11.630  10.925  25.349  0.00  0.00     0.189 HD
HETATM    5  C   UNL     1       8.697  11.458  24.228  0.00  0.00     0.020 A 
HETATM    6  C   UNL     1       9.806  10.619  24.269  0.00  0.00     0.065 A 
HETATM    7  C   UNL     1       7.604  11.100  23.411  0.00  0.00     0.035 C 
HETATM    8  C   UNL     1       7.655   9.898  22.681  0.00  0.00     0.066 C 
HETATM    9  C   UNL     1       8.731   9.019  22.873  0.00  0.00     0.083 C 
HETATM   10  C   UNL     1       9.856   9.385  23.617  0.00  0.00     0.069 C 
ENDROOT
BRANCH   8  11
HETATM   11  C   UNL     1       6.548   9.530  21.749  0.00  0.00     0.260 C 
HETATM   12  O   UNL     1       6.660   9.961  20.596  0.00  0.00    -0.267 OA
HETATM   13  N   UNL     1       5.490   8.688  22.171  0.00  0.00    -0.318 N 
HETATM   14  C   UNL     1       4.644   8.100  21.144  0.00  0.00     0.159 C 
BRANCH  13  15
HETATM   15  C   UNL     1       5.120   8.459  23.535  0.00  0.00     0.037 C 
HETATM   16  C   UNL     1       5.533   7.311  24.201  0.00  0.00     0.032 C 
HETATM   17  C   UNL     1       5.029   6.997  25.464  0.00  0.00     0.031 C 
HETATM   18  C   UNL     1       4.094   7.791  26.130  0.00  0.00     0.032 C 
HETATM   19  C   UNL     1       3.812   9.021  25.514  0.00  0.00     0.031 C 
HETATM   20  C   UNL     1       4.319   9.360  24.246  0.00  0.00     0.032 C 
BRANCH  18  21
HETATM   21  N   UNL     1       3.442   7.374  27.271  0.00  0.00    -0.351 N 
HETATM   22  C   UNL     1       2.495   6.240  27.246  0.00  0.00     0.152 C 
HETATM   23  C   UNL     1       2.804   5.293  28.416  0.00  0.00     0.187 C 
HETATM   24  O   UNL     1       2.707   5.975  29.678  0.00  0.00    -0.385 OA
HETATM   25  C   UNL     1       3.602   7.098  29.710  0.00  0.00     0.221 C 
HETATM   26  C   UNL     1       3.368   8.104  28.555  0.00  0.00     0.244 C 
BRANCH  26  27
HETATM   27  O   UNL     1       4.336   9.130  28.678  0.00  0.00    -0.374 OA
HETATM   28  H   UNL     1       4.503   9.214  29.633  0.00  0.00     0.212 HD
ENDBRANCH  26  27
ENDBRANCH  18  21
ENDBRANCH  13  15
ENDBRANCH   8  11
BRANCH   9  29
HETATM   29  O   UNL     1       8.736   7.736  22.388  0.00  0.00    -0.360 OA
HETATM   30  H   UNL     1       9.462   7.261  22.849  0.00  0.00     0.217 HD
ENDBRANCH   9  29
BRANCH   1  31
HETATM   31  C   UNL     1       8.007  13.389  25.843  0.00  0.00     0.100 C 
BRANCH  31  32
HETATM   32  C   UNL     1       7.570  14.491  24.911  0.00  0.00    -0.052 A 
HETATM   33  C   UNL     1       6.261  14.996  24.996  0.00  0.00     0.014 A 
HETATM   34  C   UNL     1       5.713  15.755  23.953  0.00  0.00    -0.061 A 
HETATM   35  C   UNL     1       4.257  16.117  23.946  0.00  0.00     0.048 C 
HETATM   36  C   UNL     1       6.514  16.071  22.850  0.00  0.00     0.007 A 
HETATM   37  C   UNL     1       7.840  15.638  22.794  0.00  0.00     0.001 A 
HETATM   38  C   UNL     1       8.368  14.856  23.820  0.00  0.00     0.007 A 
ENDBRANCH  31  32
ENDBRANCH   1  31
TORSDOF 7
ENDMDL
