MODEL 1
REMARK VINA RESULT:    -8.594      0.000      0.000
REMARK INTER + INTRA:         -14.185
REMARK INTER:                 -12.338
REMARK INTRA:                  -1.847
REMARK UNBOUND:                -2.073
REMARK  8 active torsions:
REMARK  status: ('A' for Active; 'I' for Inactive)
REMARK    1  A    between atoms: O_2  and  C_3 
REMARK    2  A    between atoms: C_6  and  C_7 
REMARK    3  A    between atoms: C_7  and  N_8 
REMARK       I    between atoms: N_8  and  C_10 
REMARK    4  A    between atoms: C_10  and  C_12 
REMARK    5  A    between atoms: C_14  and  C_15 
REMARK    6  A    between atoms: N_21  and  C_22 
REMARK    7  A    between atoms: C_29  and  O_30 
REMARK    8  A    between atoms: C_32  and  O_33 
ROOT
HETATM    1  C   UNL     1       7.518  10.581  23.528  0.00  0.00     0.066 C 
HETATM    2  C   UNL     1       7.997  11.754  24.160  0.00  0.00     0.038 C 
HETATM    3  C   UNL     1       9.317  11.841  24.620  0.00  0.00     0.046 C 
HETATM    4  C   UNL     1      10.223  10.839  24.248  0.00  0.00     0.082 C 
HETATM    5  C   UNL     1       9.771   9.646  23.709  0.00  0.00     0.075 C 
HETATM    6  C   UNL     1       8.411   9.492  23.449  0.00  0.00     0.084 C 
ENDROOT
BRANCH   3   7
HETATM    7  C   UNL     1       9.806  12.944  25.482  0.00  0.00     0.172 A 
HETATM    8  N   UNL     1      10.746  12.706  26.366  0.00  0.00    -0.151 NA
HETATM    9  N   UNL     1      10.912  13.892  27.015  0.00  0.00    -0.226 N 
HETATM   10  H   UNL     1      11.474  13.988  27.848  0.00  0.00     0.194 HD
HETATM   11  C   UNL     1       9.998  14.836  26.565  0.00  0.00     0.349 A 
HETATM   12  O   UNL     1       9.812  15.912  27.107  0.00  0.00    -0.245 OA
HETATM   13  N   UNL     1       9.340  14.240  25.500  0.00  0.00    -0.244 N 
BRANCH  13  14
HETATM   14  C   UNL     1       8.271  14.862  24.808  0.00  0.00     0.051 A 
HETATM   15  C   UNL     1       7.041  15.077  25.454  0.00  0.00     0.031 A 
HETATM   16  C   UNL     1       5.946  15.614  24.765  0.00  0.00     0.002 A 
HETATM   17  C   UNL     1       6.047  15.903  23.409  0.00  0.00     0.001 A 
HETATM   18  C   UNL     1       7.270  15.745  22.766  0.00  0.00     0.009 A 
HETATM   19  C   UNL     1       8.401  15.274  23.458  0.00  0.00    -0.035 A 
HETATM   20  C   UNL     1       9.709  15.313  22.712  0.00  0.00     0.050 C 
ENDBRANCH  13  14
ENDBRANCH   3   7
BRANCH   4  21
HETATM   21  O   UNL     1      11.579  10.963  24.383  0.00  0.00    -0.360 OA
HETATM   22  H   UNL     1      11.773  11.193  25.319  0.00  0.00     0.217 HD
ENDBRANCH   4  21
BRANCH   1  23
HETATM   23  C   UNL     1       6.211  10.474  22.799  0.00  0.00     0.256 C 
HETATM   24  N   UNL     1       5.893  11.219  21.657  0.00  0.00    -0.348 N 
HETATM   25  C   UNL     1       6.740  12.181  20.987  0.00  0.00     0.153 C 
HETATM   26  O   UNL     1       5.423   9.619  23.206  0.00  0.00    -0.267 OA
BRANCH  24  27
HETATM   27  C   UNL     1       4.652  10.869  20.965  0.00  0.00     0.164 C 
BRANCH  27  28
HETATM   28  C   UNL     1       4.855  10.203  19.619  0.00  0.00    -0.040 A 
HETATM   29  C   UNL     1       5.361   8.901  19.513  0.00  0.00     0.011 A 
HETATM   30  C   UNL     1       5.416   8.259  18.271  0.00  0.00     0.037 A 
HETATM   31  C   UNL     1       4.946   8.898  17.123  0.00  0.00     0.068 A 
HETATM   32  C   UNL     1       4.511  10.219  17.208  0.00  0.00     0.037 A 
HETATM   33  C   UNL     1       4.475  10.869  18.446  0.00  0.00     0.011 A 
BRANCH  31  34
HETATM   34  O   UNL     1       4.985   8.162  15.970  0.00  0.00    -0.356 OA
HETATM   35  C   UNL     1       4.049   7.087  15.917  0.00  0.00     0.210 C 
ENDBRANCH  31  34
ENDBRANCH  27  28
ENDBRANCH  24  27
ENDBRANCH   1  23
BRANCH   6  36
HETATM   36  O   UNL     1       7.958   8.235  23.134  0.00  0.00    -0.360 OA
HETATM   37  H   UNL     1       8.359   7.937  22.300  0.00  0.00     0.217 HD
ENDBRANCH   6  36
TORSDOF 8
ENDMDL
MODEL 2
REMARK VINA RESULT:    -8.523      4.164      5.885
REMARK INTER + INTRA:         -14.085
REMARK INTER:                 -12.319
REMARK INTRA:                  -1.765
REMARK UNBOUND:                -2.073
REMARK  8 active torsions:
REMARK  status: ('A' for Active; 'I' for Inactive)
REMARK    1  A    between atoms: O_2  and  C_3 
REMARK    2  A    between atoms: C_6  and  C_7 
REMARK    3  A    between atoms: C_7  and  N_8 
REMARK       I    between atoms: N_8  and  C_10 
REMARK    4  A    between atoms: C_10  and  C_12 
REMARK    5  A    between atoms: C_14  and  C_15 
REMARK    6  A    between atoms: N_21  and  C_22 
REMARK    7  A    between atoms: C_29  and  O_30 
REMARK    8  A    between atoms: C_32  and  O_33 
ROOT
HETATM    1  C   UNL     1       5.625  13.665  23.384  0.00  0.00     0.066 C 
HETATM    2  C   UNL     1       6.712  13.504  22.491  0.00  0.00     0.038 C 
HETATM    3  C   UNL     1       7.759  12.619  22.777  0.00  0.00     0.046 C 
HETATM    4  C   UNL     1       7.611  11.730  23.849  0.00  0.00     0.082 C 
HETATM    5  C   UNL     1       6.608  11.918  24.786  0.00  0.00     0.075 C 
HETATM    6  C   UNL     1       5.687  12.947  24.596  0.00  0.00     0.084 C 
ENDROOT
BRANCH   3   7
HETATM    7  C   UNL     1       9.021  12.576  21.999  0.00  0.00     0.172 A 
HETATM    8  N   UNL     1       9.074  11.877  20.890  0.00  0.00    -0.151 NA
HETATM    9  N   UNL     1      10.364  12.001  20.470  0.00  0.00    -0.226 N 
HETATM   10  H   UNL     1      10.748  11.457  19.711  0.00  0.00     0.194 HD
HETATM   11  C   UNL     1      11.118  12.721  21.388  0.00  0.00     0.349 A 
HETATM   12  O   UNL     1      12.332  12.814  21.343  0.00  0.00    -0.245 OA
HETATM   13  N   UNL     1      10.215  13.174  22.338  0.00  0.00    -0.244 N 
BRANCH  13  14
HETATM   14  C   UNL     1      10.607  13.897  23.493  0.00  0.00     0.051 A 
HETATM   15  C   UNL     1      11.130  13.218  24.607  0.00  0.00     0.031 A 
HETATM   16  C   UNL     1      11.448  13.903  25.787  0.00  0.00     0.002 A 
HETATM   17  C   UNL     1      11.204  15.268  25.890  0.00  0.00     0.001 A 
HETATM   18  C   UNL     1      10.736  15.964  24.781  0.00  0.00     0.009 A 
HETATM   19  C   UNL     1      10.479  15.306  23.563  0.00  0.00    -0.035 A 
HETATM   20  C   UNL     1      10.148  16.182  22.384  0.00  0.00     0.050 C 
ENDBRANCH  13  14
ENDBRANCH   3   7
BRANCH   4  21
HETATM   21  O   UNL     1       8.417  10.642  24.041  0.00  0.00    -0.360 OA
HETATM   22  H   UNL     1       7.901   9.836  23.815  0.00  0.00     0.217 HD
ENDBRANCH   4  21
BRANCH   1  23
HETATM   23  C   UNL     1       4.355  14.399  23.065  0.00  0.00     0.256 C 
HETATM   24  N   UNL     1       3.264  13.817  22.411  0.00  0.00    -0.348 N 
HETATM   25  C   UNL     1       3.156  12.449  21.953  0.00  0.00     0.153 C 
HETATM   26  O   UNL     1       4.270  15.555  23.483  0.00  0.00    -0.267 OA
BRANCH  24  27
HETATM   27  C   UNL     1       2.039  14.614  22.335  0.00  0.00     0.164 C 
BRANCH  27  28
HETATM   28  C   UNL     1       0.761  13.810  22.458  0.00  0.00    -0.040 A 
HETATM   29  C   UNL     1       0.247  13.437  23.706  0.00  0.00     0.011 A 
HETATM   30  C   UNL     1      -1.000  12.809  23.802  0.00  0.00     0.037 A 
HETATM   31  C   UNL     1      -1.760  12.566  22.657  0.00  0.00     0.068 A 
HETATM   32  C   UNL     1      -1.223  12.867  21.407  0.00  0.00     0.037 A 
HETATM   33  C   UNL     1       0.033  13.475  21.309  0.00  0.00     0.011 A 
BRANCH  31  34
HETATM   34  O   UNL     1      -2.992  12.007  22.863  0.00  0.00    -0.356 OA
HETATM   35  C   UNL     1      -3.228  11.559  24.196  0.00  0.00     0.210 C 
ENDBRANCH  31  34
ENDBRANCH  27  28
ENDBRANCH  24  27
ENDBRANCH   1  23
BRANCH   6  36
HETATM   36  O   UNL     1       4.852  13.258  25.640  0.00  0.00    -0.360 OA
HETATM   37  H   UNL     1       3.932  13.056  25.401  0.00  0.00     0.217 HD
ENDBRANCH   6  36
TORSDOF 8
ENDMDL
MODEL 3
REMARK VINA RESULT:    -8.350      4.084      5.732
REMARK INTER + INTRA:         -13.840
REMARK INTER:                 -11.910
REMARK INTRA:                  -1.930
REMARK UNBOUND:                -2.073
REMARK  8 active torsions:
REMARK  status: ('A' for Active; 'I' for Inactive)
REMARK    1  A    between atoms: O_2  and  C_3 
REMARK    2  A    between atoms: C_6  and  C_7 
REMARK    3  A    between atoms: C_7  and  N_8 
REMARK       I    between atoms: N_8  and  C_10 
REMARK    4  A    between atoms: C_10  and  C_12 
REMARK    5  A    between atoms: C_14  and  C_15 
REMARK    6  A    between atoms: N_21  and  C_22 
REMARK    7  A    between atoms: C_29  and  O_30 
REMARK    8  A    between atoms: C_32  and  O_33 
ROOT
HETATM    1  C   UNL     1       4.783  12.037  21.917  0.00  0.00     0.066 C 
HETATM    2  C   UNL     1       6.024  12.577  21.502  0.00  0.00     0.038 C 
HETATM    3  C   UNL     1       7.214  11.855  21.650  0.00  0.00     0.046 C 
HETATM    4  C   UNL     1       7.136  10.502  22.008  0.00  0.00     0.082 C 
HETATM    5  C   UNL     1       5.956   9.971  22.499  0.00  0.00     0.075 C 
HETATM    6  C   UNL     1       4.818  10.774  22.543  0.00  0.00     0.084 C 
ENDROOT
BRANCH   3   7
HETATM    7  C   UNL     1       8.557  12.450  21.447  0.00  0.00     0.172 A 
HETATM    8  N   UNL     1       9.276  12.087  20.411  0.00  0.00    -0.151 NA
HETATM    9  N   UNL     1      10.450  12.763  20.557  0.00  0.00    -0.226 N 
HETATM   10  H   UNL     1      11.261  12.583  19.984  0.00  0.00     0.194 HD
HETATM   11  C   UNL     1      10.465  13.482  21.746  0.00  0.00     0.349 A 
HETATM   12  O   UNL     1      11.460  14.017  22.201  0.00  0.00    -0.245 OA
HETATM   13  N   UNL     1       9.192  13.348  22.278  0.00  0.00    -0.244 N 
BRANCH  13  14
HETATM   14  C   UNL     1       8.821  13.884  23.537  0.00  0.00     0.051 A 
HETATM   15  C   UNL     1       9.360  13.347  24.718  0.00  0.00     0.031 A 
HETATM   16  C   UNL     1       8.946  13.806  25.976  0.00  0.00     0.002 A 
HETATM   17  C   UNL     1       7.955  14.776  26.074  0.00  0.00     0.001 A 
HETATM   18  C   UNL     1       7.448  15.355  24.916  0.00  0.00     0.009 A 
HETATM   19  C   UNL     1       7.902  14.957  23.644  0.00  0.00    -0.035 A 
HETATM   20  C   UNL     1       7.419  15.772  22.473  0.00  0.00     0.050 C 
ENDBRANCH  13  14
ENDBRANCH   3   7
BRANCH   4  21
HETATM   21  O   UNL     1       8.187   9.633  21.896  0.00  0.00    -0.360 OA
HETATM   22  H   UNL     1       7.939   8.936  21.248  0.00  0.00     0.217 HD
ENDBRANCH   4  21
BRANCH   1  23
HETATM   23  C   UNL     1       3.441  12.625  21.590  0.00  0.00     0.256 C 
HETATM   24  N   UNL     1       2.791  13.572  22.389  0.00  0.00    -0.348 N 
HETATM   25  C   UNL     1       3.280  14.149  23.621  0.00  0.00     0.153 C 
HETATM   26  O   UNL     1       2.945  12.292  20.513  0.00  0.00    -0.267 OA
BRANCH  24  27
HETATM   27  C   UNL     1       1.575  14.174  21.840  0.00  0.00     0.164 C 
BRANCH  27  28
HETATM   28  C   UNL     1       0.297  13.454  22.216  0.00  0.00    -0.040 A 
HETATM   29  C   UNL     1       0.042  13.052  23.534  0.00  0.00     0.011 A 
HETATM   30  C   UNL     1      -1.199  12.506  23.883  0.00  0.00     0.037 A 
HETATM   31  C   UNL     1      -2.208  12.376  22.928  0.00  0.00     0.068 A 
HETATM   32  C   UNL     1      -1.938  12.704  21.601  0.00  0.00     0.037 A 
HETATM   33  C   UNL     1      -0.691  13.229  21.247  0.00  0.00     0.011 A 
BRANCH  31  34
HETATM   34  O   UNL     1      -3.405  11.892  23.383  0.00  0.00    -0.356 OA
HETATM   35  C   UNL     1      -3.336  11.214  24.636  0.00  0.00     0.210 C 
ENDBRANCH  31  34
ENDBRANCH  27  28
ENDBRANCH  24  27
ENDBRANCH   1  23
BRANCH   6  36
HETATM   36  O   UNL     1       3.731  10.306  23.239  0.00  0.00    -0.360 OA
HETATM   37  H   UNL     1       4.026   9.792  24.010  0.00  0.00     0.217 HD
ENDBRANCH   6  36
TORSDOF 8
ENDMDL
MODEL 4
REMARK VINA RESULT:    -8.335      1.655      2.028
REMARK INTER + INTRA:         -13.820
REMARK INTER:                 -12.342
REMARK INTRA:                  -1.478
REMARK UNBOUND:                -2.073
REMARK  8 active torsions:
REMARK  status: ('A' for Active; 'I' for Inactive)
REMARK    1  A    between atoms: O_2  and  C_3 
REMARK    2  A    between atoms: C_6  and  C_7 
REMARK    3  A    between atoms: C_7  and  N_8 
REMARK       I    between atoms: N_8  and  C_10 
REMARK    4  A    between atoms: C_10  and  C_12 
REMARK    5  A    between atoms: C_14  and  C_15 
REMARK    6  A    between atoms: N_21  and  C_22 
REMARK    7  A    between atoms: C_29  and  O_30 
REMARK    8  A    between atoms: C_32  and  O_33 
ROOT
HETATM    1  C   UNL     1       7.759  11.282  21.542  0.00  0.00     0.066 C 
HETATM    2  C   UNL     1       8.651  12.323  21.897  0.00  0.00     0.038 C 
HETATM    3  C   UNL     1       9.557  12.170  22.953  0.00  0.00     0.046 C 
HETATM    4  C   UNL     1       9.728  10.896  23.511  0.00  0.00     0.082 C 
HETATM    5  C   UNL     1       8.820   9.885  23.247  0.00  0.00     0.075 C 
HETATM    6  C   UNL     1       7.786  10.121  22.343  0.00  0.00     0.084 C 
ENDROOT
BRANCH   3   7
HETATM    7  C   UNL     1      10.349  13.293  23.513  0.00  0.00     0.172 A 
HETATM    8  N   UNL     1      11.642  13.149  23.686  0.00  0.00    -0.151 NA
HETATM    9  N   UNL     1      12.040  14.319  24.260  0.00  0.00    -0.226 N 
HETATM   10  H   UNL     1      12.965  14.456  24.640  0.00  0.00     0.194 HD
HETATM   11  C   UNL     1      10.952  15.146  24.509  0.00  0.00     0.349 A 
HETATM   12  O   UNL     1      11.013  16.162  25.179  0.00  0.00    -0.245 OA
HETATM   13  N   UNL     1       9.862  14.511  23.935  0.00  0.00    -0.244 N 
BRANCH  13  14
HETATM   14  C   UNL     1       8.538  15.007  24.034  0.00  0.00     0.051 A 
HETATM   15  C   UNL     1       7.823  14.873  25.237  0.00  0.00     0.031 A 
HETATM   16  C   UNL     1       6.486  15.282  25.333  0.00  0.00     0.002 A 
HETATM   17  C   UNL     1       5.830  15.790  24.218  0.00  0.00     0.001 A 
HETATM   18  C   UNL     1       6.536  15.978  23.035  0.00  0.00     0.009 A 
HETATM   19  C   UNL     1       7.899  15.639  22.939  0.00  0.00    -0.035 A 
HETATM   20  C   UNL     1       8.606  16.051  21.674  0.00  0.00     0.050 C 
ENDBRANCH  13  14
ENDBRANCH   3   7
BRANCH   4  21
HETATM   21  O   UNL     1      10.775  10.567  24.327  0.00  0.00    -0.360 OA
HETATM   22  H   UNL     1      11.583  10.489  23.772  0.00  0.00     0.217 HD
ENDBRANCH   4  21
BRANCH   1  23
HETATM   23  C   UNL     1       6.925  11.257  20.294  0.00  0.00     0.256 C 
HETATM   24  N   UNL     1       5.530  11.366  20.289  0.00  0.00    -0.348 N 
HETATM   25  C   UNL     1       4.669  11.532  21.438  0.00  0.00     0.153 C 
HETATM   26  O   UNL     1       7.538  11.214  19.226  0.00  0.00    -0.267 OA
BRANCH  24  27
HETATM   27  C   UNL     1       4.885  11.503  18.982  0.00  0.00     0.164 C 
BRANCH  27  28
HETATM   28  C   UNL     1       4.590  10.188  18.290  0.00  0.00    -0.040 A 
HETATM   29  C   UNL     1       4.196  10.138  16.947  0.00  0.00     0.011 A 
HETATM   30  C   UNL     1       4.056   8.909  16.293  0.00  0.00     0.037 A 
HETATM   31  C   UNL     1       4.329   7.716  16.964  0.00  0.00     0.068 A 
HETATM   32  C   UNL     1       4.648   7.753  18.320  0.00  0.00     0.037 A 
HETATM   33  C   UNL     1       4.767   8.981  18.979  0.00  0.00     0.011 A 
BRANCH  31  34
HETATM   34  O   UNL     1       4.224   6.572  16.219  0.00  0.00    -0.356 OA
HETATM   35  C   UNL     1       3.042   6.482  15.428  0.00  0.00     0.210 C 
ENDBRANCH  31  34
ENDBRANCH  27  28
ENDBRANCH  24  27
ENDBRANCH   1  23
BRANCH   6  36
HETATM   36  O   UNL     1       6.775   9.195  22.271  0.00  0.00    -0.360 OA
HETATM   37  H   UNL     1       6.847   8.567  23.009  0.00  0.00     0.217 HD
ENDBRANCH   6  36
TORSDOF 8
ENDMDL
MODEL 5
REMARK VINA RESULT:    -8.321      3.055      4.639
REMARK INTER + INTRA:         -13.800
REMARK INTER:                 -11.856
REMARK INTRA:                  -1.944
REMARK UNBOUND:                -2.073
REMARK  8 active torsions:
REMARK  status: ('A' for Active; 'I' for Inactive)
REMARK    1  A    between atoms: O_2  and  C_3 
REMARK    2  A    between atoms: C_6  and  C_7 
REMARK    3  A    between atoms: C_7  and  N_8 
REMARK       I    between atoms: N_8  and  C_10 
REMARK    4  A    between atoms: C_10  and  C_12 
REMARK    5  A    between atoms: C_14  and  C_15 
REMARK    6  A    between atoms: N_21  and  C_22 
REMARK    7  A    between atoms: C_29  and  O_30 
REMARK    8  A    between atoms: C_32  and  O_33 
ROOT
HETATM    1  C   UNL     1       8.611   9.936  23.847  0.00  0.00     0.066 C 
HETATM    2  C   UNL     1       8.760  11.103  24.635  0.00  0.00     0.038 C 
HETATM    3  C   UNL     1       9.838  11.975  24.441  0.00  0.00     0.046 C 
HETATM    4  C   UNL     1      10.646  11.800  23.310  0.00  0.00     0.082 C 
HETATM    5  C   UNL     1      10.581  10.630  22.573  0.00  0.00     0.075 C 
HETATM    6  C   UNL     1       9.633   9.666  22.913  0.00  0.00     0.084 C 
ENDROOT
BRANCH   3   7
HETATM    7  C   UNL     1      10.168  13.078  25.375  0.00  0.00     0.172 A 
HETATM    8  N   UNL     1      11.118  12.910  26.265  0.00  0.00    -0.151 NA
HETATM    9  N   UNL     1      11.121  14.068  26.983  0.00  0.00    -0.226 N 
HETATM   10  H   UNL     1      11.654  14.186  27.832  0.00  0.00     0.194 HD
HETATM   11  C   UNL     1      10.099  14.913  26.568  0.00  0.00     0.349 A 
HETATM   12  O   UNL     1       9.769  15.922  27.166  0.00  0.00    -0.245 OA
HETATM   13  N   UNL     1       9.539  14.301  25.457  0.00  0.00    -0.244 N 
BRANCH  13  14
HETATM   14  C   UNL     1       8.409  14.821  24.777  0.00  0.00     0.051 A 
HETATM   15  C   UNL     1       7.142  14.786  25.386  0.00  0.00     0.031 A 
HETATM   16  C   UNL     1       5.998  15.219  24.701  0.00  0.00     0.002 A 
HETATM   17  C   UNL     1       6.095  15.650  23.383  0.00  0.00     0.001 A 
HETATM   18  C   UNL     1       7.346  15.740  22.783  0.00  0.00     0.009 A 
HETATM   19  C   UNL     1       8.515  15.377  23.479  0.00  0.00    -0.035 A 
HETATM   20  C   UNL     1       9.824  15.683  22.798  0.00  0.00     0.050 C 
ENDBRANCH  13  14
ENDBRANCH   3   7
BRANCH   4  21
HETATM   21  O   UNL     1      11.527  12.745  22.862  0.00  0.00    -0.360 OA
HETATM   22  H   UNL     1      11.058  13.319  22.216  0.00  0.00     0.217 HD
ENDBRANCH   4  21
BRANCH   1  23
HETATM   23  C   UNL     1       7.383   9.074  23.816  0.00  0.00     0.256 C 
HETATM   24  N   UNL     1       6.105   9.550  23.502  0.00  0.00    -0.348 N 
HETATM   25  C   UNL     1       5.749  10.906  23.147  0.00  0.00     0.153 C 
HETATM   26  O   UNL     1       7.554   7.869  24.007  0.00  0.00    -0.267 OA
BRANCH  24  27
HETATM   27  C   UNL     1       5.049   8.550  23.342  0.00  0.00     0.164 C 
BRANCH  27  28
HETATM   28  C   UNL     1       4.094   8.458  24.514  0.00  0.00    -0.040 A 
HETATM   29  C   UNL     1       2.782   8.943  24.431  0.00  0.00     0.011 A 
HETATM   30  C   UNL     1       1.878   8.731  25.478  0.00  0.00     0.037 A 
HETATM   31  C   UNL     1       2.264   8.012  26.610  0.00  0.00     0.068 A 
HETATM   32  C   UNL     1       3.587   7.592  26.733  0.00  0.00     0.037 A 
HETATM   33  C   UNL     1       4.497   7.823  25.696  0.00  0.00     0.011 A 
BRANCH  31  34
HETATM   34  O   UNL     1       1.289   7.804  27.548  0.00  0.00    -0.356 OA
HETATM   35  C   UNL     1       0.000   8.296  27.188  0.00  0.00     0.210 C 
ENDBRANCH  31  34
ENDBRANCH  27  28
ENDBRANCH  24  27
ENDBRANCH   1  23
BRANCH   6  36
HETATM   36  O   UNL     1       9.737   8.430  22.323  0.00  0.00    -0.360 OA
HETATM   37  H   UNL     1       8.852   8.056  22.180  0.00  0.00     0.217 HD
ENDBRANCH   6  36
TORSDOF 8
ENDMDL
MODEL 6
REMARK VINA RESULT:    -8.294      2.429      3.907
REMARK INTER + INTRA:         -13.762
REMARK INTER:                 -11.979
REMARK INTRA:                  -1.783
REMARK UNBOUND:                -2.073
REMARK  8 active torsions:
REMARK  status: ('A' for Active; 'I' for Inactive)
REMARK    1  A    between atoms: O_2  and  C_3 
REMARK    2  A    between atoms: C_6  and  C_7 
REMARK    3  A    between atoms: C_7  and  N_8 
REMARK       I    between atoms: N_8  and  C_10 
REMARK    4  A    between atoms: C_10  and  C_12 
REMARK    5  A    between atoms: C_14  and  C_15 
REMARK    6  A    between atoms: N_21  and  C_22 
REMARK    7  A    between atoms: C_29  and  O_30 
REMARK    8  A    between atoms: C_32  and  O_33 
ROOT
HETATM    1  C   UNL     1       5.669  10.924  20.231  0.00  0.00     0.066 C 
HETATM    2  C   UNL     1       6.876  11.665  20.246  0.00  0.00     0.038 C 
HETATM    3  C   UNL     1       7.762  11.584  21.327  0.00  0.00     0.046 C 
HETATM    4  C   UNL     1       7.551  10.592  22.293  0.00  0.00     0.082 C 
HETATM    5  C   UNL     1       6.345   9.913  22.353  0.00  0.00     0.075 C 
HETATM    6  C   UNL     1       5.379  10.161  21.381  0.00  0.00     0.084 C 
ENDROOT
BRANCH   3   7
HETATM    7  C   UNL     1       8.916  12.499  21.501  0.00  0.00     0.172 A 
HETATM    8  N   UNL     1      10.063  12.209  20.933  0.00  0.00    -0.151 NA
HETATM    9  N   UNL     1      10.903  13.203  21.336  0.00  0.00    -0.226 N 
HETATM   10  H   UNL     1      11.899  13.178  21.172  0.00  0.00     0.194 HD
HETATM   11  C   UNL     1      10.269  14.059  22.227  0.00  0.00     0.349 A 
HETATM   12  O   UNL     1      10.849  14.913  22.875  0.00  0.00    -0.245 OA
HETATM   13  N   UNL     1       8.945  13.649  22.260  0.00  0.00    -0.244 N 
BRANCH  13  14
HETATM   14  C   UNL     1       7.977  14.233  23.114  0.00  0.00     0.051 A 
HETATM   15  C   UNL     1       6.995  15.089  22.586  0.00  0.00     0.031 A 
HETATM   16  C   UNL     1       6.078  15.741  23.422  0.00  0.00     0.002 A 
HETATM   17  C   UNL     1       6.158  15.585  24.801  0.00  0.00     0.001 A 
HETATM   18  C   UNL     1       7.089  14.703  25.337  0.00  0.00     0.009 A 
HETATM   19  C   UNL     1       7.971  13.984  24.509  0.00  0.00    -0.035 A 
HETATM   20  C   UNL     1       8.811  12.928  25.179  0.00  0.00     0.050 C 
ENDBRANCH  13  14
ENDBRANCH   3   7
BRANCH   4  21
HETATM   21  O   UNL     1       8.493  10.228  23.215  0.00  0.00    -0.360 OA
HETATM   22  H   UNL     1       8.553  10.942  23.889  0.00  0.00     0.217 HD
ENDBRANCH   4  21
BRANCH   1  23
HETATM   23  C   UNL     1       4.780  10.760  19.033  0.00  0.00     0.256 C 
HETATM   24  N   UNL     1       4.965   9.777  18.054  0.00  0.00    -0.348 N 
HETATM   25  C   UNL     1       5.999   8.767  18.025  0.00  0.00     0.153 C 
HETATM   26  O   UNL     1       3.795  11.498  18.977  0.00  0.00    -0.267 OA
BRANCH  24  27
HETATM   27  C   UNL     1       3.910   9.640  17.050  0.00  0.00     0.164 C 
BRANCH  27  28
HETATM   28  C   UNL     1       3.397   8.225  16.871  0.00  0.00    -0.040 A 
HETATM   29  C   UNL     1       3.755   7.450  15.761  0.00  0.00     0.011 A 
HETATM   30  C   UNL     1       3.377   6.105  15.682  0.00  0.00     0.037 A 
HETATM   31  C   UNL     1       2.659   5.510  16.720  0.00  0.00     0.068 A 
HETATM   32  C   UNL     1       2.235   6.293  17.792  0.00  0.00     0.037 A 
HETATM   33  C   UNL     1       2.594   7.643  17.861  0.00  0.00     0.011 A 
BRANCH  31  34
HETATM   34  O   UNL     1       2.394   4.175  16.577  0.00  0.00    -0.356 OA
HETATM   35  C   UNL     1       1.123   3.877  16.003  0.00  0.00     0.210 C 
ENDBRANCH  31  34
ENDBRANCH  27  28
ENDBRANCH  24  27
ENDBRANCH   1  23
BRANCH   6  36
HETATM   36  O   UNL     1       4.119   9.656  21.588  0.00  0.00    -0.360 OA
HETATM   37  H   UNL     1       3.524  10.362  21.894  0.00  0.00     0.217 HD
ENDBRANCH   6  36
TORSDOF 8
ENDMDL
MODEL 7
REMARK VINA RESULT:    -8.240      1.013      1.470
REMARK INTER + INTRA:         -13.685
REMARK INTER:                 -11.915
REMARK INTRA:                  -1.771
REMARK UNBOUND:                -2.073
REMARK  8 active torsions:
REMARK  status: ('A' for Active; 'I' for Inactive)
REMARK    1  A    between atoms: O_2  and  C_3 
REMARK    2  A    between atoms: C_6  and  C_7 
REMARK    3  A    between atoms: C_7  and  N_8 
REMARK       I    between atoms: N_8  and  C_10 
REMARK    4  A    between atoms: C_10  and  C_12 
REMARK    5  A    between atoms: C_14  and  C_15 
REMARK    6  A    between atoms: N_21  and  C_22 
REMARK    7  A    between atoms: C_29  and  O_30 
REMARK    8  A    between atoms: C_32  and  O_33 
ROOT
HETATM    1  C   UNL     1       8.473  10.260  23.606  0.00  0.00     0.066 C 
HETATM    2  C   UNL     1       8.612  11.412  24.417  0.00  0.00     0.038 C 
HETATM    3  C   UNL     1       9.820  12.118  24.470  0.00  0.00     0.046 C 
HETATM    4  C   UNL     1      10.821  11.805  23.541  0.00  0.00     0.082 C 
HETATM    5  C   UNL     1      10.751  10.639  22.798  0.00  0.00     0.075 C 
HETATM    6  C   UNL     1       9.623   9.828  22.914  0.00  0.00     0.084 C 
ENDROOT
BRANCH   3   7
HETATM    7  C   UNL     1      10.094  13.185  25.463  0.00  0.00     0.172 A 
HETATM    8  N   UNL     1      10.993  12.984  26.398  0.00  0.00    -0.151 NA
HETATM    9  N   UNL     1      10.952  14.113  27.159  0.00  0.00    -0.226 N 
HETATM   10  H   UNL     1      11.436  14.198  28.041  0.00  0.00     0.194 HD
HETATM   11  C   UNL     1       9.953  14.972  26.719  0.00  0.00     0.349 A 
HETATM   12  O   UNL     1       9.588  15.958  27.336  0.00  0.00    -0.245 OA
HETATM   13  N   UNL     1       9.458  14.404  25.556  0.00  0.00    -0.244 N 
BRANCH  13  14
HETATM   14  C   UNL     1       8.367  14.949  24.834  0.00  0.00     0.051 A 
HETATM   15  C   UNL     1       7.104  15.057  25.440  0.00  0.00     0.031 A 
HETATM   16  C   UNL     1       5.992  15.517  24.721  0.00  0.00     0.002 A 
HETATM   17  C   UNL     1       6.116  15.831  23.372  0.00  0.00     0.001 A 
HETATM   18  C   UNL     1       7.367  15.779  22.770  0.00  0.00     0.009 A 
HETATM   19  C   UNL     1       8.509  15.389  23.495  0.00  0.00    -0.035 A 
HETATM   20  C   UNL     1       9.834  15.541  22.794  0.00  0.00     0.050 C 
ENDBRANCH  13  14
ENDBRANCH   3   7
BRANCH   4  21
HETATM   21  O   UNL     1      11.905  12.605  23.304  0.00  0.00    -0.360 OA
HETATM   22  H   UNL     1      12.611  12.360  23.942  0.00  0.00     0.217 HD
ENDBRANCH   4  21
BRANCH   1  23
HETATM   23  C   UNL     1       7.170   9.580  23.300  0.00  0.00     0.256 C 
HETATM   24  N   UNL     1       6.100  10.205  22.649  0.00  0.00    -0.348 N 
HETATM   25  C   UNL     1       6.059  11.564  22.156  0.00  0.00     0.153 C 
HETATM   26  O   UNL     1       7.097   8.383  23.582  0.00  0.00    -0.267 OA
BRANCH  24  27
HETATM   27  C   UNL     1       4.972   9.354  22.270  0.00  0.00     0.164 C 
BRANCH  27  28
HETATM   28  C   UNL     1       5.022   8.850  20.842  0.00  0.00    -0.040 A 
HETATM   29  C   UNL     1       4.862   9.716  19.753  0.00  0.00     0.011 A 
HETATM   30  C   UNL     1       5.042   9.252  18.444  0.00  0.00     0.037 A 
HETATM   31  C   UNL     1       5.406   7.927  18.208  0.00  0.00     0.068 A 
HETATM   32  C   UNL     1       5.495   7.042  19.280  0.00  0.00     0.037 A 
HETATM   33  C   UNL     1       5.294   7.499  20.586  0.00  0.00     0.011 A 
BRANCH  31  34
HETATM   34  O   UNL     1       5.621   7.589  16.898  0.00  0.00    -0.356 OA
HETATM   35  C   UNL     1       4.468   7.675  16.064  0.00  0.00     0.210 C 
ENDBRANCH  31  34
ENDBRANCH  27  28
ENDBRANCH  24  27
ENDBRANCH   1  23
BRANCH   6  36
HETATM   36  O   UNL     1       9.674   8.576  22.351  0.00  0.00    -0.360 OA
HETATM   37  H   UNL     1       8.887   8.066  22.604  0.00  0.00     0.217 HD
ENDBRANCH   6  36
TORSDOF 8
ENDMDL
MODEL 8
REMARK VINA RESULT:    -8.238      2.521      4.455
REMARK INTER + INTRA:         -13.682
REMARK INTER:                 -12.117
REMARK INTRA:                  -1.565
REMARK UNBOUND:                -2.073
REMARK  8 active torsions:
REMARK  status: ('A' for Active; 'I' for Inactive)
REMARK    1  A    between atoms: O_2  and  C_3 
REMARK    2  A    between atoms: C_6  and  C_7 
REMARK    3  A    between atoms: C_7  and  N_8 
REMARK       I    between atoms: N_8  and  C_10 
REMARK    4  A    between atoms: C_10  and  C_12 
REMARK    5  A    between atoms: C_14  and  C_15 
REMARK    6  A    between atoms: N_21  and  C_22 
REMARK    7  A    between atoms: C_29  and  O_30 
REMARK    8  A    between atoms: C_32  and  O_33 
ROOT
HETATM    1  C   UNL     1       5.349  12.209  21.526  0.00  0.00     0.066 C 
HETATM    2  C   UNL     1       6.630  12.794  21.677  0.00  0.00     0.038 C 
HETATM    3  C   UNL     1       6.788  14.041  22.294  0.00  0.00     0.046 C 
HETATM    4  C   UNL     1       5.692  14.602  22.962  0.00  0.00     0.082 C 
HETATM    5  C   UNL     1       4.416  14.102  22.764  0.00  0.00     0.075 C 
HETATM    6  C   UNL     1       4.247  12.972  21.966  0.00  0.00     0.084 C 
ENDROOT
BRANCH   3   7
HETATM    7  C   UNL     1       8.062  14.800  22.277  0.00  0.00     0.172 A 
HETATM    8  N   UNL     1       8.058  16.064  21.922  0.00  0.00    -0.151 NA
HETATM    9  N   UNL     1       9.369  16.432  21.957  0.00  0.00    -0.226 N 
HETATM   10  H   UNL     1       9.700  17.315  21.599  0.00  0.00     0.194 HD
HETATM   11  C   UNL     1      10.182  15.347  22.260  0.00  0.00     0.349 A 
HETATM   12  O   UNL     1      11.397  15.365  22.171  0.00  0.00    -0.245 OA
HETATM   13  N   UNL     1       9.317  14.305  22.559  0.00  0.00    -0.244 N 
BRANCH  13  14
HETATM   14  C   UNL     1       9.762  12.992  22.854  0.00  0.00     0.051 A 
HETATM   15  C   UNL     1       9.741  12.521  24.178  0.00  0.00     0.031 A 
HETATM   16  C   UNL     1      10.251  11.257  24.504  0.00  0.00     0.002 A 
HETATM   17  C   UNL     1      10.832  10.464  23.522  0.00  0.00     0.001 A 
HETATM   18  C   UNL     1      10.816  10.892  22.199  0.00  0.00     0.009 A 
HETATM   19  C   UNL     1      10.243  12.127  21.840  0.00  0.00    -0.035 A 
HETATM   20  C   UNL     1      10.120  12.407  20.365  0.00  0.00     0.050 C 
ENDBRANCH  13  14
ENDBRANCH   3   7
BRANCH   4  21
HETATM   21  O   UNL     1       5.799  15.648  23.837  0.00  0.00    -0.360 OA
HETATM   22  H   UNL     1       5.340  16.424  23.443  0.00  0.00     0.217 HD
ENDBRANCH   4  21
BRANCH   1  23
HETATM   23  C   UNL     1       5.100  10.793  21.099  0.00  0.00     0.256 C 
HETATM   24  N   UNL     1       5.710  10.195  19.989  0.00  0.00    -0.348 N 
HETATM   25  C   UNL     1       6.667  10.805  19.094  0.00  0.00     0.153 C 
HETATM   26  O   UNL     1       4.372  10.119  21.830  0.00  0.00    -0.267 OA
BRANCH  24  27
HETATM   27  C   UNL     1       5.496   8.758  19.814  0.00  0.00     0.164 C 
BRANCH  27  28
HETATM   28  C   UNL     1       4.426   8.405  18.802  0.00  0.00    -0.040 A 
HETATM   29  C   UNL     1       4.218   9.178  17.653  0.00  0.00     0.011 A 
HETATM   30  C   UNL     1       3.315   8.761  16.669  0.00  0.00     0.037 A 
HETATM   31  C   UNL     1       2.624   7.556  16.808  0.00  0.00     0.068 A 
HETATM   32  C   UNL     1       2.769   6.818  17.982  0.00  0.00     0.037 A 
HETATM   33  C   UNL     1       3.656   7.246  18.975  0.00  0.00     0.011 A 
BRANCH  31  34
HETATM   34  O   UNL     1       1.814   7.206  15.763  0.00  0.00    -0.356 OA
HETATM   35  C   UNL     1       2.172   5.990  15.110  0.00  0.00     0.210 C 
ENDBRANCH  31  34
ENDBRANCH  27  28
ENDBRANCH  24  27
ENDBRANCH   1  23
BRANCH   6  36
HETATM   36  O   UNL     1       2.968  12.633  21.598  0.00  0.00    -0.360 OA
HETATM   37  H   UNL     1       2.330  13.033  22.212  0.00  0.00     0.217 HD
ENDBRANCH   6  36
TORSDOF 8
ENDMDL
MODEL 9
REMARK VINA RESULT:    -8.089      2.301      7.173
REMARK INTER + INTRA:         -13.472
REMARK INTER:                 -11.398
REMARK INTRA:                  -2.073
REMARK UNBOUND:                -2.073
REMARK  8 active torsions:
REMARK  status: ('A' for Active; 'I' for Inactive)
REMARK    1  A    between atoms: O_2  and  C_3 
REMARK    2  A    between atoms: C_6  and  C_7 
REMARK    3  A    between atoms: C_7  and  N_8 
REMARK       I    between atoms: N_8  and  C_10 
REMARK    4  A    between atoms: C_10  and  C_12 
REMARK    5  A    between atoms: C_14  and  C_15 
REMARK    6  A    between atoms: N_21  and  C_22 
REMARK    7  A    between atoms: C_29  and  O_30 
REMARK    8  A    between atoms: C_32  and  O_33 
ROOT
HETATM    1  C   UNL     1       8.994  10.561  23.328  0.00  0.00     0.066 C 
HETATM    2  C   UNL     1       7.867  10.114  22.597  0.00  0.00     0.038 C 
HETATM    3  C   UNL     1       7.622   8.749  22.407  0.00  0.00     0.046 C 
HETATM    4  C   UNL     1       8.380   7.825  23.137  0.00  0.00     0.082 C 
HETATM    5  C   UNL     1       9.535   8.221  23.789  0.00  0.00     0.075 C 
HETATM    6  C   UNL     1       9.883   9.570  23.792  0.00  0.00     0.084 C 
ENDROOT
BRANCH   3   7
HETATM    7  C   UNL     1       6.597   8.230  21.469  0.00  0.00     0.172 A 
HETATM    8  N   UNL     1       6.836   7.130  20.793  0.00  0.00    -0.151 NA
HETATM    9  N   UNL     1       5.739   6.974  20.000  0.00  0.00    -0.226 N 
HETATM   10  H   UNL     1       5.691   6.287  19.261  0.00  0.00     0.194 HD
HETATM   11  C   UNL     1       4.864   8.043  20.144  0.00  0.00     0.349 A 
HETATM   12  O   UNL     1       3.907   8.237  19.416  0.00  0.00    -0.245 OA
HETATM   13  N   UNL     1       5.384   8.813  21.172  0.00  0.00    -0.244 N 
BRANCH  13  14
HETATM   14  C   UNL     1       4.812  10.044  21.580  0.00  0.00     0.051 A 
HETATM   15  C   UNL     1       4.067  10.116  22.769  0.00  0.00     0.031 A 
HETATM   16  C   UNL     1       3.424  11.302  23.150  0.00  0.00     0.002 A 
HETATM   17  C   UNL     1       3.478  12.420  22.327  0.00  0.00     0.001 A 
HETATM   18  C   UNL     1       4.253  12.384  21.173  0.00  0.00     0.009 A 
HETATM   19  C   UNL     1       4.964  11.224  20.810  0.00  0.00    -0.035 A 
HETATM   20  C   UNL     1       5.909  11.353  19.644  0.00  0.00     0.050 C 
ENDBRANCH  13  14
ENDBRANCH   3   7
BRANCH   4  21
HETATM   21  O   UNL     1       8.042   6.505  23.260  0.00  0.00    -0.360 OA
HETATM   22  H   UNL     1       8.806   6.029  23.657  0.00  0.00     0.217 HD
ENDBRANCH   4  21
BRANCH   1  23
HETATM   23  C   UNL     1       9.214  11.974  23.783  0.00  0.00     0.256 C 
HETATM   24  N   UNL     1       9.342  13.062  22.912  0.00  0.00    -0.348 N 
HETATM   25  C   UNL     1       9.274  13.028  21.468  0.00  0.00     0.153 C 
HETATM   26  O   UNL     1       9.200  12.167  25.000  0.00  0.00    -0.267 OA
BRANCH  24  27
HETATM   27  C   UNL     1       9.374  14.393  23.519  0.00  0.00     0.164 C 
BRANCH  27  28
HETATM   28  C   UNL     1       8.009  14.961  23.850  0.00  0.00    -0.040 A 
HETATM   29  C   UNL     1       7.127  15.383  22.847  0.00  0.00     0.011 A 
HETATM   30  C   UNL     1       5.825  15.781  23.168  0.00  0.00     0.037 A 
HETATM   31  C   UNL     1       5.378  15.742  24.489  0.00  0.00     0.068 A 
HETATM   32  C   UNL     1       6.272  15.395  25.501  0.00  0.00     0.037 A 
HETATM   33  C   UNL     1       7.580  15.018  25.183  0.00  0.00     0.011 A 
BRANCH  31  34
HETATM   34  O   UNL     1       4.070  16.090  24.690  0.00  0.00    -0.356 OA
HETATM   35  C   UNL     1       3.204  15.000  24.999  0.00  0.00     0.210 C 
ENDBRANCH  31  34
ENDBRANCH  27  28
ENDBRANCH  24  27
ENDBRANCH   1  23
BRANCH   6  36
HETATM   36  O   UNL     1      11.137   9.907  24.240  0.00  0.00    -0.360 OA
HETATM   37  H   UNL     1      11.395  10.774  23.885  0.00  0.00     0.217 HD
ENDBRANCH   6  36
TORSDOF 8
ENDMDL
