REMARK  8 active torsions:
REMARK  status: ('A' for Active; 'I' for Inactive)
REMARK    1  A    between atoms: O_2  and  C_3 
REMARK    2  A    between atoms: C_6  and  C_7 
REMARK    3  A    between atoms: C_7  and  N_8 
REMARK       I    between atoms: N_8  and  C_10 
REMARK    4  A    between atoms: C_10  and  C_12 
REMARK    5  A    between atoms: C_14  and  C_15 
REMARK    6  A    between atoms: N_21  and  C_22 
REMARK    7  A    between atoms: C_29  and  O_30 
REMARK    8  A    between atoms: C_32  and  O_33 
ROOT
HETATM    1  C   UNL     1       5.240  -6.848   4.422  0.00  0.00     0.066 C 
HETATM    2  C   UNL     1       6.114  -7.925   4.707  0.00  0.00     0.038 C 
HETATM    3  C   UNL     1       5.861  -9.212   4.217  0.00  0.00     0.046 C 
HETATM    4  C   UNL     1       4.855  -9.377   3.256  0.00  0.00     0.082 C 
HETATM    5  C   UNL     1       3.934  -8.370   3.021  0.00  0.00     0.075 C 
HETATM    6  C   UNL     1       4.078  -7.152   3.683  0.00  0.00     0.084 C 
ENDROOT
BRANCH   3   7
HETATM    7  C   UNL     1       6.607 -10.413   4.665  0.00  0.00     0.172 A 
HETATM    8  N   UNL     1       6.878 -11.365   3.803  0.00  0.00    -0.151 NA
HETATM    9  N   UNL     1       7.504 -12.324   4.541  0.00  0.00    -0.226 N 
HETATM   10  H   UNL     1       7.712 -13.244   4.181  0.00  0.00     0.194 HD
HETATM   11  C   UNL     1       7.536 -11.975   5.885  0.00  0.00     0.349 A 
HETATM   12  O   UNL     1       7.870 -12.737   6.775  0.00  0.00    -0.245 OA
HETATM   13  N   UNL     1       7.032 -10.685   5.947  0.00  0.00    -0.244 N 
BRANCH  13  14
HETATM   14  C   UNL     1       6.834  -9.991   7.167  0.00  0.00     0.051 A 
HETATM   15  C   UNL     1       5.567  -9.474   7.487  0.00  0.00     0.031 A 
HETATM   16  C   UNL     1       5.367  -8.715   8.648  0.00  0.00     0.002 A 
HETATM   17  C   UNL     1       6.439  -8.422   9.483  0.00  0.00     0.001 A 
HETATM   18  C   UNL     1       7.688  -8.968   9.210  0.00  0.00     0.009 A 
HETATM   19  C   UNL     1       7.893  -9.792   8.087  0.00  0.00    -0.035 A 
HETATM   20  C   UNL     1       9.234 -10.471   7.988  0.00  0.00     0.050 C 
ENDBRANCH  13  14
ENDBRANCH   3   7
BRANCH   4  21
HETATM   21  O   UNL     1       4.716 -10.508   2.499  0.00  0.00    -0.360 OA
HETATM   22  H   UNL     1       5.541 -11.036   2.584  0.00  0.00     0.217 HD
ENDBRANCH   4  21
BRANCH   1  23
HETATM   23  C   UNL     1       5.542  -5.404   4.697  0.00  0.00     0.256 C 
HETATM   24  N   UNL     1       6.324  -4.963   5.771  0.00  0.00    -0.348 N 
HETATM   25  C   UNL     1       6.973  -5.787   6.766  0.00  0.00     0.153 C 
HETATM   26  O   UNL     1       5.128  -4.590   3.870  0.00  0.00    -0.267 OA
BRANCH  24  27
HETATM   27  C   UNL     1       6.669  -3.541   5.795  0.00  0.00     0.164 C 
BRANCH  27  28
HETATM   28  C   UNL     1       5.721  -2.682   6.606  0.00  0.00    -0.040 A 
HETATM   29  C   UNL     1       5.840  -2.570   7.997  0.00  0.00     0.011 A 
HETATM   30  C   UNL     1       5.038  -1.671   8.709  0.00  0.00     0.037 A 
HETATM   31  C   UNL     1       4.124  -0.856   8.040  0.00  0.00     0.068 A 
HETATM   32  C   UNL     1       3.947  -1.014   6.667  0.00  0.00     0.037 A 
HETATM   33  C   UNL     1       4.733  -1.928   5.958  0.00  0.00     0.011 A 
BRANCH  31  34
HETATM   34  O   UNL     1       3.434   0.034   8.818  0.00  0.00    -0.356 OA
HETATM   35  C   UNL     1       3.106   1.262   8.172  0.00  0.00     0.210 C 
ENDBRANCH  31  34
ENDBRANCH  27  28
ENDBRANCH  24  27
ENDBRANCH   1  23
BRANCH   6  36
HETATM   36  O   UNL     1       3.037  -6.259   3.613  0.00  0.00    -0.360 OA
HETATM   37  H   UNL     1       2.264  -6.682   3.203  0.00  0.00     0.217 HD
ENDBRANCH   6  36
TORSDOF 8
