MODEL 1
REMARK VINA RESULT:    -6.568      0.000      0.000
REMARK INTER + INTRA:          -9.477
REMARK INTER:                  -8.557
REMARK INTRA:                  -0.920
REMARK UNBOUND:                -0.989
REMARK  5 active torsions:
REMARK  status: ('A' for Active; 'I' for Inactive)
REMARK    1  A    between atoms: N8_1  and  C24_2 
REMARK    2  A    between atoms: N8_1  and  C7_8 
REMARK    3  A    between atoms: C2_13  and  N1_14 
REMARK    4  A    between atoms: N1_14  and  C17_15 
REMARK    5  A    between atoms: C14_16  and  C13_19 
ROOT
ATOM      1  C17 FTA A   1       5.357  19.170  22.605  1.00  0.00     0.142 C 
ATOM      2  C14 FTA A   1       4.045  19.019  22.877  1.00  0.00     0.158 C 
ATOM      3  C18 FTA A   1       3.479  19.599  24.077  1.00  0.00     0.069 C 
ATOM      4  N21 FTA A   1       3.174  20.070  25.106  1.00  0.00    -0.197 NA
ENDROOT
BRANCH   2   5
ATOM      5  C13 FTA A   1       3.187  18.269  21.932  1.00  0.00     0.197 A 
ATOM      6  N15 FTA A   1       2.963  18.588  20.594  1.00  0.00    -0.093 NA
ATOM      7  N19 FTA A   1       2.064  17.658  20.088  1.00  0.00    -0.231 N 
ATOM      8  N20 FTA A   1       1.722  16.763  21.091  1.00  0.00    -0.017 NA
ATOM      9  H15 FTA A   1       1.709  17.636  19.121  1.00  0.00     0.200 HD
ATOM     10  N16 FTA A   1       2.426  17.133  22.232  1.00  0.00    -0.090 NA
ENDBRANCH   2   5
BRANCH   1  11
ATOM     11  N1  FTA A   1       6.099  18.077  22.347  1.00  0.00    -0.389 N 
ATOM     12  H11 FTA A   1       6.115  17.333  23.060  1.00  0.00     0.159 HD
BRANCH  11  13
ATOM     13  C2  FTA A   1       6.862  17.870  21.165  1.00  0.00     0.028 A 
ATOM     14  C4  FTA A   1       6.279  17.454  19.970  1.00  0.00     0.031 A 
ATOM     15  C6  FTA A   1       7.108  17.048  18.915  1.00  0.00     0.031 A 
ATOM     16  C7  FTA A   1       8.496  17.045  19.024  1.00  0.00     0.032 A 
ATOM     17  C5  FTA A   1       9.060  17.485  20.208  1.00  0.00     0.031 A 
ATOM     18  C3  FTA A   1       8.255  17.878  21.271  1.00  0.00     0.031 A 
BRANCH  16  19
ATOM     19  N8  FTA A   1       9.342  16.446  18.055  1.00  0.00    -0.356 N 
ATOM     20  H1  FTA A   1       9.318  15.419  17.978  1.00  0.00     0.166 HD
BRANCH  19  21
ATOM     21  C24 FTA A   1      10.223  17.150  17.179  1.00  0.00     0.032 A 
ATOM     22  C26 FTA A   1      11.525  16.750  16.994  1.00  0.00     0.029 A 
ATOM     23  C28 FTA A   1      12.373  17.568  16.272  1.00  0.00     0.002 A 
ATOM     24  C30 FTA A   1      11.951  18.758  15.703  1.00  0.00     0.000 A 
ATOM     25  C29 FTA A   1      10.646  19.148  15.848  1.00  0.00     0.002 A 
ATOM     26  C27 FTA A   1       9.787  18.323  16.582  1.00  0.00     0.029 A 
ENDBRANCH  19  21
ENDBRANCH  16  19
ENDBRANCH  11  13
ENDBRANCH   1  11
TORSDOF 5
ENDMDL
MODEL 2
REMARK VINA RESULT:    -6.330      2.108      3.519
REMARK INTER + INTRA:          -9.169
REMARK INTER:                  -8.104
REMARK INTRA:                  -1.064
REMARK UNBOUND:                -0.989
REMARK  5 active torsions:
REMARK  status: ('A' for Active; 'I' for Inactive)
REMARK    1  A    between atoms: N8_1  and  C24_2 
REMARK    2  A    between atoms: N8_1  and  C7_8 
REMARK    3  A    between atoms: C2_13  and  N1_14 
REMARK    4  A    between atoms: N1_14  and  C17_15 
REMARK    5  A    between atoms: C14_16  and  C13_19 
ROOT
ATOM      1  C17 FTA A   1       3.216  18.004  17.567  1.00  0.00     0.142 C 
ATOM      2  C14 FTA A   1       2.151  18.215  18.366  1.00  0.00     0.158 C 
ATOM      3  C18 FTA A   1       0.899  18.675  17.805  1.00  0.00     0.069 C 
ATOM      4  N21 FTA A   1      -0.026  19.099  17.223  1.00  0.00    -0.197 NA
ENDROOT
BRANCH   2   5
ATOM      5  C13 FTA A   1       2.270  17.957  19.820  1.00  0.00     0.197 A 
ATOM      6  N15 FTA A   1       2.975  18.731  20.738  1.00  0.00    -0.093 NA
ATOM      7  N19 FTA A   1       2.867  18.114  21.977  1.00  0.00    -0.231 N 
ATOM      8  N20 FTA A   1       2.105  16.962  21.846  1.00  0.00    -0.017 NA
ATOM      9  H15 FTA A   1       3.285  18.456  22.854  1.00  0.00     0.200 HD
ATOM     10  N16 FTA A   1       1.725  16.868  20.511  1.00  0.00    -0.090 NA
ENDBRANCH   2   5
BRANCH   1  11
ATOM     11  N1  FTA A   1       4.386  18.597  17.872  1.00  0.00    -0.389 N 
ATOM     12  H11 FTA A   1       4.403  19.627  17.909  1.00  0.00     0.159 HD
BRANCH  11  13
ATOM     13  C2  FTA A   1       5.601  17.910  18.146  1.00  0.00     0.028 A 
ATOM     14  C4  FTA A   1       6.348  18.158  19.295  1.00  0.00     0.031 A 
ATOM     15  C6  FTA A   1       7.640  17.622  19.393  1.00  0.00     0.031 A 
ATOM     16  C7  FTA A   1       8.201  16.852  18.378  1.00  0.00     0.032 A 
ATOM     17  C5  FTA A   1       7.436  16.595  17.255  1.00  0.00     0.031 A 
ATOM     18  C3  FTA A   1       6.159  17.127  17.132  1.00  0.00     0.031 A 
BRANCH  16  19
ATOM     19  N8  FTA A   1       9.570  16.479  18.363  1.00  0.00    -0.356 N 
ATOM     20  H1  FTA A   1       9.824  15.598  18.832  1.00  0.00     0.166 HD
BRANCH  19  21
ATOM     21  C24 FTA A   1      10.623  17.223  17.750  1.00  0.00     0.032 A 
ATOM     22  C26 FTA A   1      10.659  18.596  17.801  1.00  0.00     0.029 A 
ATOM     23  C28 FTA A   1      11.604  19.263  17.045  1.00  0.00     0.002 A 
ATOM     24  C30 FTA A   1      12.535  18.597  16.265  1.00  0.00     0.000 A 
ATOM     25  C29 FTA A   1      12.534  17.228  16.236  1.00  0.00     0.002 A 
ATOM     26  C27 FTA A   1      11.575  16.551  16.998  1.00  0.00     0.029 A 
ENDBRANCH  19  21
ENDBRANCH  16  19
ENDBRANCH  11  13
ENDBRANCH   1  11
TORSDOF 5
ENDMDL
MODEL 3
REMARK VINA RESULT:    -6.289      4.853      6.058
REMARK INTER + INTRA:          -9.116
REMARK INTER:                  -8.224
REMARK INTRA:                  -0.892
REMARK UNBOUND:                -0.989
REMARK  5 active torsions:
REMARK  status: ('A' for Active; 'I' for Inactive)
REMARK    1  A    between atoms: N8_1  and  C24_2 
REMARK    2  A    between atoms: N8_1  and  C7_8 
REMARK    3  A    between atoms: C2_13  and  N1_14 
REMARK    4  A    between atoms: N1_14  and  C17_15 
REMARK    5  A    between atoms: C14_16  and  C13_19 
ROOT
ATOM      1  C17 FTA A   1       4.948  16.008  19.810  1.00  0.00     0.142 C 
ATOM      2  C14 FTA A   1       4.297  16.750  20.729  1.00  0.00     0.158 C 
ATOM      3  C18 FTA A   1       2.857  16.664  20.846  1.00  0.00     0.069 C 
ATOM      4  N21 FTA A   1       1.693  16.536  20.788  1.00  0.00    -0.197 NA
ENDROOT
BRANCH   2   5
ATOM      5  C13 FTA A   1       5.069  17.639  21.626  1.00  0.00     0.197 A 
ATOM      6  N15 FTA A   1       6.457  17.747  21.682  1.00  0.00    -0.093 NA
ATOM      7  N19 FTA A   1       6.766  18.656  22.686  1.00  0.00    -0.231 N 
ATOM      8  N20 FTA A   1       5.590  19.115  23.261  1.00  0.00    -0.017 NA
ATOM      9  H15 FTA A   1       7.717  18.942  22.960  1.00  0.00     0.200 HD
ATOM     10  N16 FTA A   1       4.536  18.495  22.598  1.00  0.00    -0.090 NA
ENDBRANCH   2   5
BRANCH   1  11
ATOM     11  N1  FTA A   1       5.789  16.621  18.955  1.00  0.00    -0.389 N 
ATOM     12  H11 FTA A   1       6.681  16.970  19.334  1.00  0.00     0.159 HD
BRANCH  11  13
ATOM     13  C2  FTA A   1       5.540  16.823  17.570  1.00  0.00     0.028 A 
ATOM     14  C4  FTA A   1       4.274  17.140  17.084  1.00  0.00     0.031 A 
ATOM     15  C6  FTA A   1       4.047  17.098  15.701  1.00  0.00     0.031 A 
ATOM     16  C7  FTA A   1       5.047  16.747  14.798  1.00  0.00     0.032 A 
ATOM     17  C5  FTA A   1       6.306  16.460  15.295  1.00  0.00     0.031 A 
ATOM     18  C3  FTA A   1       6.547  16.483  16.663  1.00  0.00     0.031 A 
BRANCH  16  19
ATOM     19  N8  FTA A   1       4.790  16.495  13.426  1.00  0.00    -0.356 N 
ATOM     20  H1  FTA A   1       4.766  17.308  12.793  1.00  0.00     0.166 HD
BRANCH  19  21
ATOM     21  C24 FTA A   1       4.563  15.209  12.850  1.00  0.00     0.032 A 
ATOM     22  C26 FTA A   1       5.543  14.246  12.827  1.00  0.00     0.029 A 
ATOM     23  C28 FTA A   1       5.319  13.089  12.106  1.00  0.00     0.002 A 
ATOM     24  C30 FTA A   1       4.133  12.852  11.432  1.00  0.00     0.000 A 
ATOM     25  C29 FTA A   1       3.134  13.787  11.478  1.00  0.00     0.002 A 
ATOM     26  C27 FTA A   1       3.359  14.961  12.205  1.00  0.00     0.029 A 
ENDBRANCH  19  21
ENDBRANCH  16  19
ENDBRANCH  11  13
ENDBRANCH   1  11
TORSDOF 5
ENDMDL
MODEL 4
REMARK VINA RESULT:    -6.090      4.848      6.011
REMARK INTER + INTRA:          -8.859
REMARK INTER:                  -7.919
REMARK INTRA:                  -0.940
REMARK UNBOUND:                -0.989
REMARK  5 active torsions:
REMARK  status: ('A' for Active; 'I' for Inactive)
REMARK    1  A    between atoms: N8_1  and  C24_2 
REMARK    2  A    between atoms: N8_1  and  C7_8 
REMARK    3  A    between atoms: C2_13  and  N1_14 
REMARK    4  A    between atoms: N1_14  and  C17_15 
REMARK    5  A    between atoms: C14_16  and  C13_19 
ROOT
ATOM      1  C17 FTA A   1       4.101  16.476  18.555  1.00  0.00     0.142 C 
ATOM      2  C14 FTA A   1       4.016  16.778  19.866  1.00  0.00     0.158 C 
ATOM      3  C18 FTA A   1       2.758  16.630  20.566  1.00  0.00     0.069 C 
ATOM      4  N21 FTA A   1       1.669  16.518  20.986  1.00  0.00    -0.197 NA
ENDROOT
BRANCH   2   5
ATOM      5  C13 FTA A   1       5.222  17.247  20.585  1.00  0.00     0.197 A 
ATOM      6  N15 FTA A   1       5.401  17.264  21.967  1.00  0.00    -0.093 NA
ATOM      7  N19 FTA A   1       6.648  17.820  22.219  1.00  0.00    -0.231 N 
ATOM      8  N20 FTA A   1       7.251  18.153  21.015  1.00  0.00    -0.017 NA
ATOM      9  H15 FTA A   1       7.061  17.963  23.153  1.00  0.00     0.200 HD
ATOM     10  N16 FTA A   1       6.373  17.789  20.000  1.00  0.00    -0.090 NA
ENDBRANCH   2   5
BRANCH   1  11
ATOM     11  N1  FTA A   1       4.605  17.393  17.707  1.00  0.00    -0.389 N 
ATOM     12  H11 FTA A   1       4.852  18.315  18.095  1.00  0.00     0.159 HD
BRANCH  11  13
ATOM     13  C2  FTA A   1       4.823  17.185  16.318  1.00  0.00     0.028 A 
ATOM     14  C4  FTA A   1       3.791  17.259  15.386  1.00  0.00     0.031 A 
ATOM     15  C6  FTA A   1       4.024  16.820  14.076  1.00  0.00     0.031 A 
ATOM     16  C7  FTA A   1       5.256  16.309  13.675  1.00  0.00     0.032 A 
ATOM     17  C5  FTA A   1       6.279  16.266  14.605  1.00  0.00     0.031 A 
ATOM     18  C3  FTA A   1       6.064  16.684  15.913  1.00  0.00     0.031 A 
BRANCH  16  19
ATOM     19  N8  FTA A   1       5.454  15.670  12.424  1.00  0.00    -0.356 N 
ATOM     20  H1  FTA A   1       4.925  16.034  11.619  1.00  0.00     0.166 HD
BRANCH  19  21
ATOM     21  C24 FTA A   1       6.325  14.563  12.191  1.00  0.00     0.032 A 
ATOM     22  C26 FTA A   1       7.513  14.712  11.514  1.00  0.00     0.029 A 
ATOM     23  C28 FTA A   1       8.225  13.578  11.170  1.00  0.00     0.002 A 
ATOM     24  C30 FTA A   1       7.803  12.304  11.509  1.00  0.00     0.000 A 
ATOM     25  C29 FTA A   1       6.641  12.145  12.216  1.00  0.00     0.002 A 
ATOM     26  C27 FTA A   1       5.916  13.291  12.563  1.00  0.00     0.029 A 
ENDBRANCH  19  21
ENDBRANCH  16  19
ENDBRANCH  11  13
ENDBRANCH   1  11
TORSDOF 5
ENDMDL
MODEL 5
REMARK VINA RESULT:    -6.019      1.967      3.367
REMARK INTER + INTRA:          -8.768
REMARK INTER:                  -7.565
REMARK INTRA:                  -1.202
REMARK UNBOUND:                -0.989
REMARK  5 active torsions:
REMARK  status: ('A' for Active; 'I' for Inactive)
REMARK    1  A    between atoms: N8_1  and  C24_2 
REMARK    2  A    between atoms: N8_1  and  C7_8 
REMARK    3  A    between atoms: C2_13  and  N1_14 
REMARK    4  A    between atoms: N1_14  and  C17_15 
REMARK    5  A    between atoms: C14_16  and  C13_19 
ROOT
ATOM      1  C17 FTA A   1       3.480  20.034  21.891  1.00  0.00     0.142 C 
ATOM      2  C14 FTA A   1       3.702  19.669  23.170  1.00  0.00     0.158 C 
ATOM      3  C18 FTA A   1       5.035  19.748  23.727  1.00  0.00     0.069 C 
ATOM      4  N21 FTA A   1       6.167  19.811  24.025  1.00  0.00    -0.197 NA
ENDROOT
BRANCH   2   5
ATOM      5  C13 FTA A   1       2.569  19.201  24.001  1.00  0.00     0.197 A 
ATOM      6  N15 FTA A   1       2.080  19.821  25.148  1.00  0.00    -0.093 NA
ATOM      7  N19 FTA A   1       1.049  19.033  25.642  1.00  0.00    -0.231 N 
ATOM      8  N20 FTA A   1       0.889  17.926  24.821  1.00  0.00    -0.017 NA
ATOM      9  H15 FTA A   1       0.492  19.236  26.484  1.00  0.00     0.200 HD
ATOM     10  N16 FTA A   1       1.823  18.034  23.796  1.00  0.00    -0.090 NA
ENDBRANCH   2   5
BRANCH   1  11
ATOM     11  N1  FTA A   1       2.853  19.173  21.067  1.00  0.00    -0.389 N 
ATOM     12  H11 FTA A   1       1.824  19.211  21.033  1.00  0.00     0.159 HD
BRANCH  11  13
ATOM     13  C2  FTA A   1       3.503  18.215  20.242  1.00  0.00     0.028 A 
ATOM     14  C4  FTA A   1       3.935  16.985  20.732  1.00  0.00     0.031 A 
ATOM     15  C6  FTA A   1       4.767  16.189  19.933  1.00  0.00     0.031 A 
ATOM     16  C7  FTA A   1       5.178  16.590  18.664  1.00  0.00     0.032 A 
ATOM     17  C5  FTA A   1       4.720  17.803  18.181  1.00  0.00     0.031 A 
ATOM     18  C3  FTA A   1       3.905  18.612  18.963  1.00  0.00     0.031 A 
BRANCH  16  19
ATOM     19  N8  FTA A   1       6.179  15.906  17.928  1.00  0.00    -0.356 N 
ATOM     20  H1  FTA A   1       5.935  14.980  17.546  1.00  0.00     0.166 HD
BRANCH  19  21
ATOM     21  C24 FTA A   1       7.496  16.393  17.673  1.00  0.00     0.032 A 
ATOM     22  C26 FTA A   1       8.424  16.522  18.680  1.00  0.00     0.029 A 
ATOM     23  C28 FTA A   1       9.618  17.160  18.402  1.00  0.00     0.002 A 
ATOM     24  C30 FTA A   1       9.926  17.644  17.142  1.00  0.00     0.000 A 
ATOM     25  C29 FTA A   1       9.026  17.488  16.121  1.00  0.00     0.002 A 
ATOM     26  C27 FTA A   1       7.814  16.846  16.401  1.00  0.00     0.029 A 
ENDBRANCH  19  21
ENDBRANCH  16  19
ENDBRANCH  11  13
ENDBRANCH   1  11
TORSDOF 5
ENDMDL
MODEL 6
REMARK VINA RESULT:    -6.010      3.840      6.074
REMARK INTER + INTRA:          -8.756
REMARK INTER:                  -7.851
REMARK INTRA:                  -0.906
REMARK UNBOUND:                -0.989
REMARK  5 active torsions:
REMARK  status: ('A' for Active; 'I' for Inactive)
REMARK    1  A    between atoms: N8_1  and  C24_2 
REMARK    2  A    between atoms: N8_1  and  C7_8 
REMARK    3  A    between atoms: C2_13  and  N1_14 
REMARK    4  A    between atoms: N1_14  and  C17_15 
REMARK    5  A    between atoms: C14_16  and  C13_19 
ROOT
ATOM      1  C17 FTA A   1       4.684  18.081  21.512  1.00  0.00     0.142 C 
ATOM      2  C14 FTA A   1       4.149  17.230  20.614  1.00  0.00     0.158 C 
ATOM      3  C18 FTA A   1       2.792  16.757  20.780  1.00  0.00     0.069 C 
ATOM      4  N21 FTA A   1       1.709  16.414  21.071  1.00  0.00    -0.197 NA
ENDROOT
BRANCH   2   5
ATOM      5  C13 FTA A   1       4.956  16.797  19.451  1.00  0.00     0.197 A 
ATOM      6  N15 FTA A   1       4.712  15.684  18.649  1.00  0.00    -0.093 NA
ATOM      7  N19 FTA A   1       5.729  15.617  17.706  1.00  0.00    -0.231 N 
ATOM      8  N20 FTA A   1       6.608  16.671  17.908  1.00  0.00    -0.017 NA
ATOM      9  H15 FTA A   1       5.817  14.899  16.972  1.00  0.00     0.200 HD
ATOM     10  N16 FTA A   1       6.124  17.410  18.983  1.00  0.00    -0.090 NA
ENDBRANCH   2   5
BRANCH   1  11
ATOM     11  N1  FTA A   1       5.866  17.772  22.079  1.00  0.00    -0.389 N 
ATOM     12  H11 FTA A   1       5.976  16.821  22.460  1.00  0.00     0.159 HD
BRANCH  11  13
ATOM     13  C2  FTA A   1       6.973  18.657  22.191  1.00  0.00     0.028 A 
ATOM     14  C4  FTA A   1       8.214  18.366  21.630  1.00  0.00     0.031 A 
ATOM     15  C6  FTA A   1       9.317  19.161  21.970  1.00  0.00     0.031 A 
ATOM     16  C7  FTA A   1       9.213  20.232  22.854  1.00  0.00     0.032 A 
ATOM     17  C5  FTA A   1       7.968  20.523  23.383  1.00  0.00     0.031 A 
ATOM     18  C3  FTA A   1       6.865  19.739  23.069  1.00  0.00     0.031 A 
BRANCH  16  19
ATOM     19  N8  FTA A   1      10.343  20.915  23.372  1.00  0.00    -0.356 N 
ATOM     20  H1  FTA A   1      10.570  21.832  22.961  1.00  0.00     0.166 HD
BRANCH  19  21
ATOM     21  C24 FTA A   1      11.191  20.437  24.416  1.00  0.00     0.032 A 
ATOM     22  C26 FTA A   1      11.566  19.116  24.491  1.00  0.00     0.029 A 
ATOM     23  C28 FTA A   1      12.242  18.683  25.616  1.00  0.00     0.002 A 
ATOM     24  C30 FTA A   1      12.582  19.535  26.652  1.00  0.00     0.000 A 
ATOM     25  C29 FTA A   1      12.248  20.861  26.572  1.00  0.00     0.002 A 
ATOM     26  C27 FTA A   1      11.560  21.302  25.436  1.00  0.00     0.029 A 
ENDBRANCH  19  21
ENDBRANCH  16  19
ENDBRANCH  11  13
ENDBRANCH   1  11
TORSDOF 5
ENDMDL
MODEL 7
REMARK VINA RESULT:    -5.955      5.526      7.661
REMARK INTER + INTRA:          -8.685
REMARK INTER:                  -7.705
REMARK INTRA:                  -0.980
REMARK UNBOUND:                -0.989
REMARK  5 active torsions:
REMARK  status: ('A' for Active; 'I' for Inactive)
REMARK    1  A    between atoms: N8_1  and  C24_2 
REMARK    2  A    between atoms: N8_1  and  C7_8 
REMARK    3  A    between atoms: C2_13  and  N1_14 
REMARK    4  A    between atoms: N1_14  and  C17_15 
REMARK    5  A    between atoms: C14_16  and  C13_19 
ROOT
ATOM      1  C17 FTA A   1       4.627  16.296  19.721  1.00  0.00     0.142 C 
ATOM      2  C14 FTA A   1       4.504  17.029  20.846  1.00  0.00     0.158 C 
ATOM      3  C18 FTA A   1       3.238  17.083  21.544  1.00  0.00     0.069 C 
ATOM      4  N21 FTA A   1       2.145  17.080  21.969  1.00  0.00    -0.197 NA
ENDROOT
BRANCH   2   5
ATOM      5  C13 FTA A   1       5.679  17.765  21.367  1.00  0.00     0.197 A 
ATOM      6  N15 FTA A   1       5.722  18.523  22.535  1.00  0.00    -0.093 NA
ATOM      7  N19 FTA A   1       6.992  19.077  22.627  1.00  0.00    -0.231 N 
ATOM      8  N20 FTA A   1       7.743  18.677  21.532  1.00  0.00    -0.017 NA
ATOM      9  H15 FTA A   1       7.324  19.687  23.388  1.00  0.00     0.200 HD
ATOM     10  N16 FTA A   1       6.934  17.854  20.755  1.00  0.00    -0.090 NA
ENDBRANCH   2   5
BRANCH   1  11
ATOM     11  N1  FTA A   1       5.117  16.882  18.612  1.00  0.00    -0.389 N 
ATOM     12  H11 FTA A   1       6.099  17.193  18.632  1.00  0.00     0.159 HD
BRANCH  11  13
ATOM     13  C2  FTA A   1       4.383  17.103  17.415  1.00  0.00     0.028 A 
ATOM     14  C4  FTA A   1       2.998  17.248  17.411  1.00  0.00     0.031 A 
ATOM     15  C6  FTA A   1       2.316  17.232  16.187  1.00  0.00     0.031 A 
ATOM     16  C7  FTA A   1       2.979  17.073  14.972  1.00  0.00     0.032 A 
ATOM     17  C5  FTA A   1       4.358  16.956  14.992  1.00  0.00     0.031 A 
ATOM     18  C3  FTA A   1       5.051  16.956  16.196  1.00  0.00     0.031 A 
BRANCH  16  19
ATOM     19  N8  FTA A   1       2.299  16.845  13.749  1.00  0.00    -0.356 N 
ATOM     20  H1  FTA A   1       2.771  17.144  12.883  1.00  0.00     0.166 HD
BRANCH  19  21
ATOM     21  C24 FTA A   1       1.015  16.234  13.617  1.00  0.00     0.032 A 
ATOM     22  C26 FTA A   1      -0.077  16.942  13.175  1.00  0.00     0.029 A 
ATOM     23  C28 FTA A   1      -1.322  16.345  13.234  1.00  0.00     0.002 A 
ATOM     24  C30 FTA A   1      -1.503  15.051  13.693  1.00  0.00     0.000 A 
ATOM     25  C29 FTA A   1      -0.418  14.322  14.101  1.00  0.00     0.002 A 
ATOM     26  C27 FTA A   1       0.843  14.926  14.046  1.00  0.00     0.029 A 
ENDBRANCH  19  21
ENDBRANCH  16  19
ENDBRANCH  11  13
ENDBRANCH   1  11
TORSDOF 5
ENDMDL
MODEL 8
REMARK VINA RESULT:    -5.954      1.785      2.440
REMARK INTER + INTRA:          -8.683
REMARK INTER:                  -7.694
REMARK INTRA:                  -0.989
REMARK UNBOUND:                -0.989
REMARK  5 active torsions:
REMARK  status: ('A' for Active; 'I' for Inactive)
REMARK    1  A    between atoms: N8_1  and  C24_2 
REMARK    2  A    between atoms: N8_1  and  C7_8 
REMARK    3  A    between atoms: C2_13  and  N1_14 
REMARK    4  A    between atoms: N1_14  and  C17_15 
REMARK    5  A    between atoms: C14_16  and  C13_19 
ROOT
ATOM      1  C17 FTA A   1       4.987  19.466  23.127  1.00  0.00     0.142 C 
ATOM      2  C14 FTA A   1       3.709  19.070  23.291  1.00  0.00     0.158 C 
ATOM      3  C18 FTA A   1       3.007  19.370  24.520  1.00  0.00     0.069 C 
ATOM      4  N21 FTA A   1       2.585  19.631  25.582  1.00  0.00    -0.197 NA
ENDROOT
BRANCH   2   5
ATOM      5  C13 FTA A   1       3.028  18.339  22.198  1.00  0.00     0.197 A 
ATOM      6  N15 FTA A   1       2.963  18.730  20.863  1.00  0.00    -0.093 NA
ATOM      7  N19 FTA A   1       2.194  17.790  20.189  1.00  0.00    -0.231 N 
ATOM      8  N20 FTA A   1       1.775  16.817  21.085  1.00  0.00    -0.017 NA
ATOM      9  H15 FTA A   1       1.970  17.811  19.183  1.00  0.00     0.200 HD
ATOM     10  N16 FTA A   1       2.301  17.150  22.329  1.00  0.00    -0.090 NA
ENDBRANCH   2   5
BRANCH   1  11
ATOM     11  N1  FTA A   1       5.911  18.555  22.768  1.00  0.00    -0.389 N 
ATOM     12  H11 FTA A   1       6.054  17.750  23.395  1.00  0.00     0.159 HD
BRANCH  11  13
ATOM     13  C2  FTA A   1       6.705  18.618  21.590  1.00  0.00     0.028 A 
ATOM     14  C4  FTA A   1       6.258  19.245  20.429  1.00  0.00     0.031 A 
ATOM     15  C6  FTA A   1       6.983  19.073  19.242  1.00  0.00     0.031 A 
ATOM     16  C7  FTA A   1       8.136  18.293  19.185  1.00  0.00     0.032 A 
ATOM     17  C5  FTA A   1       8.580  17.698  20.352  1.00  0.00     0.031 A 
ATOM     18  C3  FTA A   1       7.868  17.845  21.536  1.00  0.00     0.031 A 
BRANCH  16  19
ATOM     19  N8  FTA A   1       8.763  17.936  17.964  1.00  0.00    -0.356 N 
ATOM     20  H1  FTA A   1       9.773  18.122  17.880  1.00  0.00     0.166 HD
BRANCH  19  21
ATOM     21  C24 FTA A   1       8.111  17.339  16.843  1.00  0.00     0.032 A 
ATOM     22  C26 FTA A   1       8.300  17.809  15.565  1.00  0.00     0.029 A 
ATOM     23  C28 FTA A   1       7.511  17.303  14.550  1.00  0.00     0.002 A 
ATOM     24  C30 FTA A   1       6.562  16.319  14.767  1.00  0.00     0.000 A 
ATOM     25  C29 FTA A   1       6.390  15.815  16.029  1.00  0.00     0.002 A 
ATOM     26  C27 FTA A   1       7.185  16.329  17.060  1.00  0.00     0.029 A 
ENDBRANCH  19  21
ENDBRANCH  16  19
ENDBRANCH  11  13
ENDBRANCH   1  11
TORSDOF 5
ENDMDL
MODEL 9
REMARK VINA RESULT:    -5.932      5.623      7.870
REMARK INTER + INTRA:          -8.655
REMARK INTER:                  -7.753
REMARK INTRA:                  -0.902
REMARK UNBOUND:                -0.989
REMARK  5 active torsions:
REMARK  status: ('A' for Active; 'I' for Inactive)
REMARK    1  A    between atoms: N8_1  and  C24_2 
REMARK    2  A    between atoms: N8_1  and  C7_8 
REMARK    3  A    between atoms: C2_13  and  N1_14 
REMARK    4  A    between atoms: N1_14  and  C17_15 
REMARK    5  A    between atoms: C14_16  and  C13_19 
ROOT
ATOM      1  C17 FTA A   1       3.595  18.988  20.321  1.00  0.00     0.142 C 
ATOM      2  C14 FTA A   1       3.992  18.598  21.548  1.00  0.00     0.158 C 
ATOM      3  C18 FTA A   1       5.364  18.198  21.777  1.00  0.00     0.069 C 
ATOM      4  N21 FTA A   1       6.483  17.849  21.800  1.00  0.00    -0.197 NA
ENDROOT
BRANCH   2   5
ATOM      5  C13 FTA A   1       3.017  18.599  22.663  1.00  0.00     0.197 A 
ATOM      6  N15 FTA A   1       2.779  19.649  23.547  1.00  0.00    -0.093 NA
ATOM      7  N19 FTA A   1       1.827  19.217  24.462  1.00  0.00    -0.231 N 
ATOM      8  N20 FTA A   1       1.468  17.911  24.163  1.00  0.00    -0.017 NA
ATOM      9  H15 FTA A   1       1.447  19.778  25.238  1.00  0.00     0.200 HD
ATOM     10  N16 FTA A   1       2.197  17.529  23.042  1.00  0.00    -0.090 NA
ENDBRANCH   2   5
BRANCH   1  11
ATOM     11  N1  FTA A   1       2.520  18.395  19.765  1.00  0.00    -0.389 N 
ATOM     12  H11 FTA A   1       1.869  17.905  20.395  1.00  0.00     0.159 HD
BRANCH  11  13
ATOM     13  C2  FTA A   1       2.216  18.395  18.377  1.00  0.00     0.028 A 
ATOM     14  C4  FTA A   1       1.006  18.876  17.883  1.00  0.00     0.031 A 
ATOM     15  C6  FTA A   1       0.676  18.637  16.542  1.00  0.00     0.031 A 
ATOM     16  C7  FTA A   1       1.518  17.931  15.687  1.00  0.00     0.032 A 
ATOM     17  C5  FTA A   1       2.728  17.482  16.186  1.00  0.00     0.031 A 
ATOM     18  C3  FTA A   1       3.068  17.697  17.516  1.00  0.00     0.031 A 
BRANCH  16  19
ATOM     19  N8  FTA A   1       1.118  17.499  14.397  1.00  0.00    -0.356 N 
ATOM     20  H1  FTA A   1       1.553  17.963  13.586  1.00  0.00     0.166 HD
BRANCH  19  21
ATOM     21  C24 FTA A   1       0.162  16.473  14.128  1.00  0.00     0.032 A 
ATOM     22  C26 FTA A   1      -1.120  16.769  13.731  1.00  0.00     0.029 A 
ATOM     23  C28 FTA A   1      -2.043  15.743  13.655  1.00  0.00     0.002 A 
ATOM     24  C30 FTA A   1      -1.716  14.427  13.934  1.00  0.00     0.000 A 
ATOM     25  C29 FTA A   1      -0.432  14.114  14.294  1.00  0.00     0.002 A 
ATOM     26  C27 FTA A   1       0.504  15.151  14.375  1.00  0.00     0.029 A 
ENDBRANCH  19  21
ENDBRANCH  16  19
ENDBRANCH  11  13
ENDBRANCH   1  11
TORSDOF 5
ENDMDL
