MODEL 1
REMARK VINA RESULT:    -9.069      0.000      0.000
REMARK INTER + INTRA:         -12.630
REMARK INTER:                 -11.968
REMARK INTRA:                  -0.662
REMARK UNBOUND:                -1.175
REMARK  5 active torsions:
REMARK  status: ('A' for Active; 'I' for Inactive)
REMARK       I    between atoms: C_2  and  N_3 
REMARK    1  A    between atoms: C_2  and  C_15 
REMARK    2  A    between atoms: N_3  and  C_5 
REMARK    3  A    between atoms: C_16  and  O_17 
REMARK    4  A    between atoms: C_23  and  C_24 
REMARK    5  A    between atoms: C_24  and  C_25 
ROOT
HETATM    1  C   UNL     1       2.195   7.957  25.581  0.00  0.00     0.066 C 
HETATM    2  C   UNL     1       2.910   7.832  26.775  0.00  0.00     0.083 C 
HETATM    3  C   UNL     1       2.344   8.157  28.013  0.00  0.00     0.069 C 
HETATM    4  C   UNL     1       1.074   8.734  28.016  0.00  0.00     0.065 A 
HETATM    5  N   UNL     1       0.310   9.203  29.047  0.00  0.00    -0.277 N 
HETATM    6  H   UNL     1       0.536   9.195  30.035  0.00  0.00     0.189 HD
HETATM    7  N   UNL     1      -0.828   9.790  28.668  0.00  0.00    -0.178 NA
HETATM    8  C   UNL     1      -0.821   9.703  27.326  0.00  0.00     0.071 A 
HETATM    9  C   UNL     1       0.351   9.011  26.857  0.00  0.00     0.020 A 
HETATM   10  C   UNL     1       0.926   8.613  25.623  0.00  0.00     0.035 C 
ENDROOT
BRANCH   1  11
HETATM   11  C   UNL     1       2.707   7.543  24.221  0.00  0.00     0.260 C 
HETATM   12  O   UNL     1       2.494   6.358  23.954  0.00  0.00    -0.267 OA
HETATM   13  N   UNL     1       3.410   8.432  23.353  0.00  0.00    -0.318 N 
HETATM   14  C   UNL     1       3.894   9.755  23.783  0.00  0.00     0.159 C 
BRANCH  13  15
HETATM   15  C   UNL     1       3.812   8.022  22.002  0.00  0.00     0.039 A 
HETATM   16  C   UNL     1       3.267   6.898  21.357  0.00  0.00     0.069 A 
HETATM   17  C   UNL     1       3.673   6.515  20.068  0.00  0.00     0.104 A 
HETATM   18  O   UNL     1       3.046   5.420  19.520  0.00  0.00    -0.346 OA
HETATM   19  C   UNL     1       4.664   7.226  19.399  0.00  0.00     0.102 A 
HETATM   20  C   UNL     1       3.282   5.339  18.109  0.00  0.00     0.202 C 
HETATM   21  C   UNL     1       4.753   5.555  17.800  0.00  0.00     0.202 C 
HETATM   22  O   UNL     1       5.149   6.883  18.165  0.00  0.00    -0.346 OA
HETATM   23  C   UNL     1       5.198   8.362  19.989  0.00  0.00     0.042 A 
HETATM   24  C   UNL     1       4.766   8.756  21.260  0.00  0.00     0.032 A 
ENDBRANCH  13  15
ENDBRANCH   1  11
BRANCH   2  25
HETATM   25  O   UNL     1       4.223   7.436  26.843  0.00  0.00    -0.360 OA
HETATM   26  H   UNL     1       4.709   7.852  26.107  0.00  0.00     0.217 HD
ENDBRANCH   2  25
BRANCH   8  27
HETATM   27  C   UNL     1      -1.892  10.450  26.601  0.00  0.00     0.100 C 
BRANCH  27  28
HETATM   28  C   UNL     1      -1.344  11.141  25.382  0.00  0.00    -0.052 A 
HETATM   29  C   UNL     1      -0.341  12.104  25.552  0.00  0.00     0.014 A 
HETATM   30  C   UNL     1       0.020  12.964  24.511  0.00  0.00    -0.061 A 
HETATM   31  C   UNL     1       0.970  14.093  24.777  0.00  0.00     0.048 C 
HETATM   32  C   UNL     1      -0.552  12.785  23.248  0.00  0.00     0.007 A 
HETATM   33  C   UNL     1      -1.517  11.795  23.049  0.00  0.00     0.001 A 
HETATM   34  C   UNL     1      -1.926  10.988  24.115  0.00  0.00     0.007 A 
ENDBRANCH  27  28
ENDBRANCH   8  27
TORSDOF 5
ENDMDL
MODEL 2
REMARK VINA RESULT:    -8.931      1.168      1.396
REMARK INTER + INTRA:         -12.455
REMARK INTER:                 -11.311
REMARK INTRA:                  -1.144
REMARK UNBOUND:                -1.175
REMARK  5 active torsions:
REMARK  status: ('A' for Active; 'I' for Inactive)
REMARK       I    between atoms: C_2  and  N_3 
REMARK    1  A    between atoms: C_2  and  C_15 
REMARK    2  A    between atoms: N_3  and  C_5 
REMARK    3  A    between atoms: C_16  and  O_17 
REMARK    4  A    between atoms: C_23  and  C_24 
REMARK    5  A    between atoms: C_24  and  C_25 
ROOT
HETATM    1  C   UNL     1       1.598   8.063  25.866  0.00  0.00     0.066 C 
HETATM    2  C   UNL     1       2.078   8.259  27.163  0.00  0.00     0.083 C 
HETATM    3  C   UNL     1       1.320   8.913  28.141  0.00  0.00     0.069 C 
HETATM    4  C   UNL     1       0.108   9.483  27.751  0.00  0.00     0.065 A 
HETATM    5  N   UNL     1      -0.799  10.222  28.457  0.00  0.00    -0.277 N 
HETATM    6  H   UNL     1      -0.754  10.480  29.436  0.00  0.00     0.189 HD
HETATM    7  N   UNL     1      -1.812  10.695  27.728  0.00  0.00    -0.178 NA
HETATM    8  C   UNL     1      -1.570  10.247  26.483  0.00  0.00     0.071 A 
HETATM    9  C   UNL     1      -0.377   9.442  26.445  0.00  0.00     0.020 A 
HETATM   10  C   UNL     1       0.385   8.718  25.492  0.00  0.00     0.035 C 
ENDROOT
BRANCH   1  11
HETATM   11  C   UNL     1       2.319   7.289  24.787  0.00  0.00     0.260 C 
HETATM   12  O   UNL     1       2.084   6.079  24.805  0.00  0.00    -0.267 OA
HETATM   13  N   UNL     1       3.222   7.901  23.865  0.00  0.00    -0.318 N 
HETATM   14  C   UNL     1       3.704   9.285  24.016  0.00  0.00     0.159 C 
BRANCH  13  15
HETATM   15  C   UNL     1       3.834   7.136  22.773  0.00  0.00     0.039 A 
HETATM   16  C   UNL     1       3.321   7.139  21.464  0.00  0.00     0.069 A 
HETATM   17  C   UNL     1       3.915   6.392  20.434  0.00  0.00     0.104 A 
HETATM   18  O   UNL     1       3.349   6.499  19.184  0.00  0.00    -0.346 OA
HETATM   19  C   UNL     1       5.021   5.589  20.691  0.00  0.00     0.102 A 
HETATM   20  C   UNL     1       4.224   5.987  18.172  0.00  0.00     0.202 C 
HETATM   21  C   UNL     1       4.796   4.643  18.591  0.00  0.00     0.202 C 
HETATM   22  O   UNL     1       5.622   4.792  19.752  0.00  0.00    -0.346 OA
HETATM   23  C   UNL     1       5.578   5.589  21.962  0.00  0.00     0.042 A 
HETATM   24  C   UNL     1       5.000   6.362  22.976  0.00  0.00     0.032 A 
ENDBRANCH  13  15
ENDBRANCH   1  11
BRANCH   2  25
HETATM   25  O   UNL     1       3.331   7.883  27.581  0.00  0.00    -0.360 OA
HETATM   26  H   UNL     1       3.302   6.942  27.834  0.00  0.00     0.217 HD
ENDBRANCH   2  25
BRANCH   8  27
HETATM   27  C   UNL     1      -2.446  10.780  25.398  0.00  0.00     0.100 C 
BRANCH  27  28
HETATM   28  C   UNL     1      -1.650  11.568  24.394  0.00  0.00    -0.052 A 
HETATM   29  C   UNL     1      -0.546  12.305  24.843  0.00  0.00     0.014 A 
HETATM   30  C   UNL     1       0.069  13.258  24.026  0.00  0.00    -0.061 A 
HETATM   31  C   UNL     1       1.132  14.148  24.596  0.00  0.00     0.048 C 
HETATM   32  C   UNL     1      -0.356  13.398  22.702  0.00  0.00     0.007 A 
HETATM   33  C   UNL     1      -1.422  12.634  22.223  0.00  0.00     0.001 A 
HETATM   34  C   UNL     1      -2.080  11.736  23.069  0.00  0.00     0.007 A 
ENDBRANCH  27  28
ENDBRANCH   8  27
TORSDOF 5
ENDMDL
MODEL 3
REMARK VINA RESULT:    -8.648      3.028      8.776
REMARK INTER + INTRA:         -12.097
REMARK INTER:                 -11.299
REMARK INTRA:                  -0.798
REMARK UNBOUND:                -1.175
REMARK  5 active torsions:
REMARK  status: ('A' for Active; 'I' for Inactive)
REMARK       I    between atoms: C_2  and  N_3 
REMARK    1  A    between atoms: C_2  and  C_15 
REMARK    2  A    between atoms: N_3  and  C_5 
REMARK    3  A    between atoms: C_16  and  O_17 
REMARK    4  A    between atoms: C_23  and  C_24 
REMARK    5  A    between atoms: C_24  and  C_25 
ROOT
HETATM    1  C   UNL     1       4.236   7.238  23.115  0.00  0.00     0.066 C 
HETATM    2  C   UNL     1       5.461   6.571  23.023  0.00  0.00     0.083 C 
HETATM    3  C   UNL     1       6.229   6.593  21.853  0.00  0.00     0.069 C 
HETATM    4  C   UNL     1       5.678   7.202  20.725  0.00  0.00     0.065 A 
HETATM    5  N   UNL     1       6.158   7.320  19.451  0.00  0.00    -0.277 N 
HETATM    6  H   UNL     1       7.046   6.987  19.094  0.00  0.00     0.189 HD
HETATM    7  N   UNL     1       5.307   7.885  18.591  0.00  0.00    -0.178 NA
HETATM    8  C   UNL     1       4.215   8.158  19.328  0.00  0.00     0.071 A 
HETATM    9  C   UNL     1       4.407   7.774  20.701  0.00  0.00     0.020 A 
HETATM   10  C   UNL     1       3.680   7.790  21.920  0.00  0.00     0.035 C 
ENDROOT
BRANCH   1  11
HETATM   11  C   UNL     1       3.398   7.334  24.368  0.00  0.00     0.260 C 
HETATM   12  O   UNL     1       3.013   6.240  24.790  0.00  0.00    -0.267 OA
HETATM   13  N   UNL     1       3.049   8.578  24.975  0.00  0.00    -0.318 N 
HETATM   14  C   UNL     1       3.281   9.879  24.325  0.00  0.00     0.159 C 
BRANCH  13  15
HETATM   15  C   UNL     1       2.310   8.630  26.242  0.00  0.00     0.039 A 
HETATM   16  C   UNL     1       2.934   8.463  27.491  0.00  0.00     0.069 A 
HETATM   17  C   UNL     1       2.209   8.506  28.693  0.00  0.00     0.104 A 
HETATM   18  O   UNL     1       2.928   8.366  29.858  0.00  0.00    -0.346 OA
HETATM   19  C   UNL     1       0.828   8.680  28.680  0.00  0.00     0.102 A 
HETATM   20  C   UNL     1       2.156   8.767  30.996  0.00  0.00     0.202 C 
HETATM   21  C   UNL     1       0.762   8.167  30.935  0.00  0.00     0.202 C 
HETATM   22  O   UNL     1       0.047   8.680  29.804  0.00  0.00    -0.346 OA
HETATM   23  C   UNL     1       0.184   8.885  27.468  0.00  0.00     0.042 A 
HETATM   24  C   UNL     1       0.918   8.874  26.277  0.00  0.00     0.032 A 
ENDBRANCH  13  15
ENDBRANCH   1  11
BRANCH   2  25
HETATM   25  O   UNL     1       5.992   5.805  24.031  0.00  0.00    -0.360 OA
HETATM   26  H   UNL     1       5.309   5.678  24.715  0.00  0.00     0.217 HD
ENDBRANCH   2  25
BRANCH   8  27
HETATM   27  C   UNL     1       3.009   8.630  18.586  0.00  0.00     0.100 C 
BRANCH  27  28
HETATM   28  C   UNL     1       2.361   7.504  17.828  0.00  0.00    -0.052 A 
HETATM   29  C   UNL     1       2.435   6.209  18.358  0.00  0.00     0.014 A 
HETATM   30  C   UNL     1       2.095   5.092  17.590  0.00  0.00    -0.061 A 
HETATM   31  C   UNL     1       2.351   3.716  18.129  0.00  0.00     0.048 C 
HETATM   32  C   UNL     1       1.567   5.279  16.309  0.00  0.00     0.007 A 
HETATM   33  C   UNL     1       1.439   6.567  15.785  0.00  0.00     0.001 A 
HETATM   34  C   UNL     1       1.851   7.675  16.532  0.00  0.00     0.007 A 
ENDBRANCH  27  28
ENDBRANCH   8  27
TORSDOF 5
ENDMDL
MODEL 4
REMARK VINA RESULT:    -8.544      3.008      8.718
REMARK INTER + INTRA:         -11.966
REMARK INTER:                 -10.957
REMARK INTRA:                  -1.009
REMARK UNBOUND:                -1.175
REMARK  5 active torsions:
REMARK  status: ('A' for Active; 'I' for Inactive)
REMARK       I    between atoms: C_2  and  N_3 
REMARK    1  A    between atoms: C_2  and  C_15 
REMARK    2  A    between atoms: N_3  and  C_5 
REMARK    3  A    between atoms: C_16  and  O_17 
REMARK    4  A    between atoms: C_23  and  C_24 
REMARK    5  A    between atoms: C_24  and  C_25 
ROOT
HETATM    1  C   UNL     1       4.237   7.251  23.080  0.00  0.00     0.066 C 
HETATM    2  C   UNL     1       5.486   6.627  23.045  0.00  0.00     0.083 C 
HETATM    3  C   UNL     1       6.282   6.632  21.893  0.00  0.00     0.069 C 
HETATM    4  C   UNL     1       5.737   7.174  20.729  0.00  0.00     0.065 A 
HETATM    5  N   UNL     1       6.244   7.258  19.462  0.00  0.00    -0.277 N 
HETATM    6  H   UNL     1       7.153   6.945  19.140  0.00  0.00     0.189 HD
HETATM    7  N   UNL     1       5.395   7.757  18.560  0.00  0.00    -0.178 NA
HETATM    8  C   UNL     1       4.276   8.019  19.259  0.00  0.00     0.071 A 
HETATM    9  C   UNL     1       4.448   7.697  20.652  0.00  0.00     0.020 A 
HETATM   10  C   UNL     1       3.691   7.734  21.851  0.00  0.00     0.035 C 
ENDROOT
BRANCH   1  11
HETATM   11  C   UNL     1       3.364   7.365  24.308  0.00  0.00     0.260 C 
HETATM   12  O   UNL     1       2.951   6.280  24.724  0.00  0.00    -0.267 OA
HETATM   13  N   UNL     1       3.016   8.617  24.900  0.00  0.00    -0.318 N 
HETATM   14  C   UNL     1       3.286   9.912  24.250  0.00  0.00     0.159 C 
BRANCH  13  15
HETATM   15  C   UNL     1       2.243   8.687  26.145  0.00  0.00     0.039 A 
HETATM   16  C   UNL     1       2.816   8.457  27.408  0.00  0.00     0.069 A 
HETATM   17  C   UNL     1       2.057   8.518  28.588  0.00  0.00     0.104 A 
HETATM   18  O   UNL     1       2.730   8.311  29.770  0.00  0.00    -0.346 OA
HETATM   19  C   UNL     1       0.691   8.774  28.537  0.00  0.00     0.102 A 
HETATM   20  C   UNL     1       1.948   8.733  30.894  0.00  0.00     0.202 C 
HETATM   21  C   UNL     1       0.524   8.218  30.777  0.00  0.00     0.202 C 
HETATM   22  O   UNL     1      -0.124   8.796  29.637  0.00  0.00    -0.346 OA
HETATM   23  C   UNL     1       0.098   9.042  27.311  0.00  0.00     0.042 A 
HETATM   24  C   UNL     1       0.867   9.013  26.143  0.00  0.00     0.032 A 
ENDBRANCH  13  15
ENDBRANCH   1  11
BRANCH   2  25
HETATM   25  O   UNL     1       6.020   5.923  24.095  0.00  0.00    -0.360 OA
HETATM   26  H   UNL     1       5.344   5.300  24.423  0.00  0.00     0.217 HD
ENDBRANCH   2  25
BRANCH   8  27
HETATM   27  C   UNL     1       3.072   8.415  18.471  0.00  0.00     0.100 C 
BRANCH  27  28
HETATM   28  C   UNL     1       2.267   7.211  18.064  0.00  0.00    -0.052 A 
HETATM   29  C   UNL     1       2.163   6.904  16.702  0.00  0.00     0.014 A 
HETATM   30  C   UNL     1       1.228   5.974  16.239  0.00  0.00    -0.061 A 
HETATM   31  C   UNL     1       1.024   5.797  14.764  0.00  0.00     0.048 C 
HETATM   32  C   UNL     1       0.461   5.258  17.163  0.00  0.00     0.007 A 
HETATM   33  C   UNL     1       0.590   5.517  18.530  0.00  0.00     0.001 A 
HETATM   34  C   UNL     1       1.474   6.502  18.979  0.00  0.00     0.007 A 
ENDBRANCH  27  28
ENDBRANCH   8  27
TORSDOF 5
ENDMDL
MODEL 5
REMARK VINA RESULT:    -8.500      3.025      8.642
REMARK INTER + INTRA:         -11.911
REMARK INTER:                 -10.812
REMARK INTRA:                  -1.099
REMARK UNBOUND:                -1.175
REMARK  5 active torsions:
REMARK  status: ('A' for Active; 'I' for Inactive)
REMARK       I    between atoms: C_2  and  N_3 
REMARK    1  A    between atoms: C_2  and  C_15 
REMARK    2  A    between atoms: N_3  and  C_5 
REMARK    3  A    between atoms: C_16  and  O_17 
REMARK    4  A    between atoms: C_23  and  C_24 
REMARK    5  A    between atoms: C_24  and  C_25 
ROOT
HETATM    1  C   UNL     1       4.264   7.684  22.743  0.00  0.00     0.066 C 
HETATM    2  C   UNL     1       5.398   6.869  22.783  0.00  0.00     0.083 C 
HETATM    3  C   UNL     1       6.099   6.521  21.623  0.00  0.00     0.069 C 
HETATM    4  C   UNL     1       5.561   6.911  20.396  0.00  0.00     0.065 A 
HETATM    5  N   UNL     1       5.981   6.666  19.119  0.00  0.00    -0.277 N 
HETATM    6  H   UNL     1       6.805   6.152  18.830  0.00  0.00     0.189 HD
HETATM    7  N   UNL     1       5.156   7.114  18.171  0.00  0.00    -0.178 NA
HETATM    8  C   UNL     1       4.143   7.686  18.848  0.00  0.00     0.071 A 
HETATM    9  C   UNL     1       4.364   7.614  20.268  0.00  0.00     0.020 A 
HETATM   10  C   UNL     1       3.711   8.005  21.465  0.00  0.00     0.035 C 
ENDROOT
BRANCH   1  11
HETATM   11  C   UNL     1       3.511   8.174  23.958  0.00  0.00     0.260 C 
HETATM   12  O   UNL     1       3.820   9.317  24.303  0.00  0.00    -0.267 OA
HETATM   13  N   UNL     1       2.565   7.369  24.661  0.00  0.00    -0.318 N 
HETATM   14  C   UNL     1       2.398   5.926  24.411  0.00  0.00     0.159 C 
BRANCH  13  15
HETATM   15  C   UNL     1       1.785   7.908  25.781  0.00  0.00     0.039 A 
HETATM   16  C   UNL     1       0.663   8.735  25.596  0.00  0.00     0.069 A 
HETATM   17  C   UNL     1      -0.066   9.250  26.680  0.00  0.00     0.104 A 
HETATM   18  O   UNL     1      -1.166  10.019  26.380  0.00  0.00    -0.346 OA
HETATM   19  C   UNL     1       0.329   8.982  27.987  0.00  0.00     0.102 A 
HETATM   20  C   UNL     1      -2.008  10.190  27.526  0.00  0.00     0.202 C 
HETATM   21  C   UNL     1      -1.182  10.562  28.745  0.00  0.00     0.202 C 
HETATM   22  O   UNL     1      -0.297   9.490  29.094  0.00  0.00    -0.346 OA
HETATM   23  C   UNL     1       1.409   8.139  28.209  0.00  0.00     0.042 A 
HETATM   24  C   UNL     1       2.110   7.603  27.123  0.00  0.00     0.032 A 
ENDBRANCH  13  15
ENDBRANCH   1  11
BRANCH   2  25
HETATM   25  O   UNL     1       5.892   6.301  23.931  0.00  0.00    -0.360 OA
HETATM   26  H   UNL     1       5.962   6.995  24.613  0.00  0.00     0.217 HD
ENDBRANCH   2  25
BRANCH   8  27
HETATM   27  C   UNL     1       2.960   8.115  18.045  0.00  0.00     0.100 C 
BRANCH  27  28
HETATM   28  C   UNL     1       1.982   6.986  17.870  0.00  0.00    -0.052 A 
HETATM   29  C   UNL     1       1.541   6.676  16.577  0.00  0.00     0.014 A 
HETATM   30  C   UNL     1       0.448   5.831  16.368  0.00  0.00    -0.061 A 
HETATM   31  C   UNL     1      -0.104   5.659  14.985  0.00  0.00     0.048 C 
HETATM   32  C   UNL     1      -0.145   5.197  17.465  0.00  0.00     0.007 A 
HETATM   33  C   UNL     1       0.317   5.456  18.758  0.00  0.00     0.001 A 
HETATM   34  C   UNL     1       1.363   6.361  18.963  0.00  0.00     0.007 A 
ENDBRANCH  27  28
ENDBRANCH   8  27
TORSDOF 5
ENDMDL
MODEL 6
REMARK VINA RESULT:    -8.211      3.098      8.622
REMARK INTER + INTRA:         -11.547
REMARK INTER:                 -10.438
REMARK INTRA:                  -1.109
REMARK UNBOUND:                -1.175
REMARK  5 active torsions:
REMARK  status: ('A' for Active; 'I' for Inactive)
REMARK       I    between atoms: C_2  and  N_3 
REMARK    1  A    between atoms: C_2  and  C_15 
REMARK    2  A    between atoms: N_3  and  C_5 
REMARK    3  A    between atoms: C_16  and  O_17 
REMARK    4  A    between atoms: C_23  and  C_24 
REMARK    5  A    between atoms: C_24  and  C_25 
ROOT
HETATM    1  C   UNL     1       4.274   7.736  22.799  0.00  0.00     0.066 C 
HETATM    2  C   UNL     1       5.389   6.895  22.776  0.00  0.00     0.083 C 
HETATM    3  C   UNL     1       6.070   6.602  21.588  0.00  0.00     0.069 C 
HETATM    4  C   UNL     1       5.527   7.078  20.394  0.00  0.00     0.065 A 
HETATM    5  N   UNL     1       5.929   6.902  19.100  0.00  0.00    -0.277 N 
HETATM    6  H   UNL     1       6.738   6.388  18.770  0.00  0.00     0.189 HD
HETATM    7  N   UNL     1       5.103   7.426  18.190  0.00  0.00    -0.178 NA
HETATM    8  C   UNL     1       4.112   7.977  18.913  0.00  0.00     0.071 A 
HETATM    9  C   UNL     1       4.346   7.814  20.323  0.00  0.00     0.020 A 
HETATM   10  C   UNL     1       3.714   8.146  21.550  0.00  0.00     0.035 C 
ENDROOT
BRANCH   1  11
HETATM   11  C   UNL     1       3.545   8.168  24.050  0.00  0.00     0.260 C 
HETATM   12  O   UNL     1       3.862   9.293  24.444  0.00  0.00    -0.267 OA
HETATM   13  N   UNL     1       2.612   7.330  24.733  0.00  0.00    -0.318 N 
HETATM   14  C   UNL     1       2.438   5.901  24.417  0.00  0.00     0.159 C 
BRANCH  13  15
HETATM   15  C   UNL     1       1.854   7.816  25.892  0.00  0.00     0.039 A 
HETATM   16  C   UNL     1       0.737   8.660  25.769  0.00  0.00     0.069 A 
HETATM   17  C   UNL     1       0.030   9.123  26.890  0.00  0.00     0.104 A 
HETATM   18  O   UNL     1      -1.068   9.915  26.649  0.00  0.00    -0.346 OA
HETATM   19  C   UNL     1       0.443   8.783  28.175  0.00  0.00     0.102 A 
HETATM   20  C   UNL     1      -1.891  10.032  27.816  0.00  0.00     0.202 C 
HETATM   21  C   UNL     1      -1.042  10.333  29.039  0.00  0.00     0.202 C 
HETATM   22  O   UNL     1      -0.161   9.237  29.317  0.00  0.00    -0.346 OA
HETATM   23  C   UNL     1       1.519   7.921  28.334  0.00  0.00     0.042 A 
HETATM   24  C   UNL     1       2.198   7.438  27.210  0.00  0.00     0.032 A 
ENDBRANCH  13  15
ENDBRANCH   1  11
BRANCH   2  25
HETATM   25  O   UNL     1       5.882   6.247  23.881  0.00  0.00    -0.360 OA
HETATM   26  H   UNL     1       6.502   5.556  23.582  0.00  0.00     0.217 HD
ENDBRANCH   2  25
BRANCH   8  27
HETATM   27  C   UNL     1       2.930   8.481  18.152  0.00  0.00     0.100 C 
BRANCH  27  28
HETATM   28  C   UNL     1       2.087   7.344  17.641  0.00  0.00    -0.052 A 
HETATM   29  C   UNL     1       1.281   6.647  18.550  0.00  0.00     0.014 A 
HETATM   30  C   UNL     1       0.686   5.430  18.204  0.00  0.00    -0.061 A 
HETATM   31  C   UNL     1      -0.024   4.627  19.253  0.00  0.00     0.048 C 
HETATM   32  C   UNL     1       0.806   4.960  16.893  0.00  0.00     0.007 A 
HETATM   33  C   UNL     1       1.564   5.671  15.960  0.00  0.00     0.001 A 
HETATM   34  C   UNL     1       2.217   6.848  16.335  0.00  0.00     0.007 A 
ENDBRANCH  27  28
ENDBRANCH   8  27
TORSDOF 5
ENDMDL
MODEL 7
REMARK VINA RESULT:    -8.057      3.192      8.939
REMARK INTER + INTRA:         -11.351
REMARK INTER:                 -10.297
REMARK INTRA:                  -1.054
REMARK UNBOUND:                -1.175
REMARK  5 active torsions:
REMARK  status: ('A' for Active; 'I' for Inactive)
REMARK       I    between atoms: C_2  and  N_3 
REMARK    1  A    between atoms: C_2  and  C_15 
REMARK    2  A    between atoms: N_3  and  C_5 
REMARK    3  A    between atoms: C_16  and  O_17 
REMARK    4  A    between atoms: C_23  and  C_24 
REMARK    5  A    between atoms: C_24  and  C_25 
ROOT
HETATM    1  C   UNL     1       4.159   7.135  21.609  0.00  0.00     0.066 C 
HETATM    2  C   UNL     1       5.198   6.228  21.384  0.00  0.00     0.083 C 
HETATM    3  C   UNL     1       5.562   5.826  20.094  0.00  0.00     0.069 C 
HETATM    4  C   UNL     1       4.772   6.263  19.030  0.00  0.00     0.065 A 
HETATM    5  N   UNL     1       4.844   5.987  17.693  0.00  0.00    -0.277 N 
HETATM    6  H   UNL     1       5.527   5.407  17.220  0.00  0.00     0.189 HD
HETATM    7  N   UNL     1       3.849   6.505  16.969  0.00  0.00    -0.178 NA
HETATM    8  C   UNL     1       3.084   7.156  17.863  0.00  0.00     0.071 A 
HETATM    9  C   UNL     1       3.641   7.063  19.187  0.00  0.00     0.020 A 
HETATM   10  C   UNL     1       3.336   7.503  20.501  0.00  0.00     0.035 C 
ENDROOT
BRANCH   1  11
HETATM   11  C   UNL     1       3.770   7.682  22.963  0.00  0.00     0.260 C 
HETATM   12  O   UNL     1       4.221   8.807  23.189  0.00  0.00    -0.267 OA
HETATM   13  N   UNL     1       2.991   6.944  23.904  0.00  0.00    -0.318 N 
HETATM   14  C   UNL     1       2.684   5.511  23.741  0.00  0.00     0.159 C 
BRANCH  13  15
HETATM   15  C   UNL     1       2.554   7.541  25.171  0.00  0.00     0.039 A 
HETATM   16  C   UNL     1       3.302   7.435  26.357  0.00  0.00     0.069 A 
HETATM   17  C   UNL     1       2.863   8.004  27.563  0.00  0.00     0.104 A 
HETATM   18  O   UNL     1       3.693   7.869  28.652  0.00  0.00    -0.346 OA
HETATM   19  C   UNL     1       1.642   8.667  27.628  0.00  0.00     0.102 A 
HETATM   20  C   UNL     1       3.319   8.766  29.705  0.00  0.00     0.202 C 
HETATM   21  C   UNL     1       1.818   8.723  29.934  0.00  0.00     0.202 C 
HETATM   22  O   UNL     1       1.122   9.201  28.777  0.00  0.00    -0.346 OA
HETATM   23  C   UNL     1       0.894   8.824  26.469  0.00  0.00     0.042 A 
HETATM   24  C   UNL     1       1.354   8.282  25.264  0.00  0.00     0.032 A 
ENDBRANCH  13  15
ENDBRANCH   1  11
BRANCH   2  25
HETATM   25  O   UNL     1       5.912   5.618  22.385  0.00  0.00    -0.360 OA
HETATM   26  H   UNL     1       6.861   5.783  22.232  0.00  0.00     0.217 HD
ENDBRANCH   2  25
BRANCH   8  27
HETATM   27  C   UNL     1       1.779   7.685  17.368  0.00  0.00     0.100 C 
BRANCH  27  28
HETATM   28  C   UNL     1       0.881   6.570  16.905  0.00  0.00    -0.052 A 
HETATM   29  C   UNL     1       0.305   5.731  17.867  0.00  0.00     0.014 A 
HETATM   30  C   UNL     1      -0.314   4.531  17.504  0.00  0.00    -0.061 A 
HETATM   31  C   UNL     1      -0.764   3.576  18.569  0.00  0.00     0.048 C 
HETATM   32  C   UNL     1      -0.457   4.220  16.149  0.00  0.00     0.007 A 
HETATM   33  C   UNL     1       0.067   5.073  15.174  0.00  0.00     0.001 A 
HETATM   34  C   UNL     1       0.750   6.233  15.550  0.00  0.00     0.007 A 
ENDBRANCH  27  28
ENDBRANCH   8  27
TORSDOF 5
ENDMDL
MODEL 8
REMARK VINA RESULT:    -7.806      2.619      3.495
REMARK INTER + INTRA:         -11.034
REMARK INTER:                  -9.859
REMARK INTRA:                  -1.175
REMARK UNBOUND:                -1.175
REMARK  5 active torsions:
REMARK  status: ('A' for Active; 'I' for Inactive)
REMARK       I    between atoms: C_2  and  N_3 
REMARK    1  A    between atoms: C_2  and  C_15 
REMARK    2  A    between atoms: N_3  and  C_5 
REMARK    3  A    between atoms: C_16  and  O_17 
REMARK    4  A    between atoms: C_23  and  C_24 
REMARK    5  A    between atoms: C_24  and  C_25 
ROOT
HETATM    1  C   UNL     1       3.548   4.934  25.411  0.00  0.00     0.066 C 
HETATM    2  C   UNL     1       4.544   4.731  26.368  0.00  0.00     0.083 C 
HETATM    3  C   UNL     1       4.244   4.580  27.727  0.00  0.00     0.069 C 
HETATM    4  C   UNL     1       2.920   4.763  28.124  0.00  0.00     0.065 A 
HETATM    5  N   UNL     1       2.349   4.741  29.366  0.00  0.00    -0.277 N 
HETATM    6  H   UNL     1       2.808   4.561  30.252  0.00  0.00     0.189 HD
HETATM    7  N   UNL     1       1.053   5.061  29.384  0.00  0.00    -0.178 NA
HETATM    8  C   UNL     1       0.748   5.303  28.096  0.00  0.00     0.071 A 
HETATM    9  C   UNL     1       1.890   5.097  27.246  0.00  0.00     0.020 A 
HETATM   10  C   UNL     1       2.217   5.181  25.867  0.00  0.00     0.035 C 
ENDROOT
BRANCH   1  11
HETATM   11  C   UNL     1       3.787   5.015  23.921  0.00  0.00     0.260 C 
HETATM   12  O   UNL     1       3.617   3.943  23.334  0.00  0.00    -0.267 OA
HETATM   13  N   UNL     1       4.212   6.210  23.267  0.00  0.00    -0.318 N 
HETATM   14  C   UNL     1       4.669   7.404  24.000  0.00  0.00     0.159 C 
BRANCH  13  15
HETATM   15  C   UNL     1       4.346   6.277  21.807  0.00  0.00     0.039 A 
HETATM   16  C   UNL     1       3.270   6.599  20.961  0.00  0.00     0.069 A 
HETATM   17  C   UNL     1       3.415   6.649  19.565  0.00  0.00     0.104 A 
HETATM   18  O   UNL     1       2.305   7.009  18.838  0.00  0.00    -0.346 OA
HETATM   19  C   UNL     1       4.635   6.341  18.970  0.00  0.00     0.102 A 
HETATM   20  C   UNL     1       2.655   7.358  17.493  0.00  0.00     0.202 C 
HETATM   21  C   UNL     1       3.597   6.325  16.901  0.00  0.00     0.202 C 
HETATM   22  O   UNL     1       4.839   6.315  17.616  0.00  0.00    -0.346 OA
HETATM   23  C   UNL     1       5.728   6.055  19.775  0.00  0.00     0.042 A 
HETATM   24  C   UNL     1       5.584   6.040  21.167  0.00  0.00     0.032 A 
ENDBRANCH  13  15
ENDBRANCH   1  11
BRANCH   2  25
HETATM   25  O   UNL     1       5.887   4.711  26.084  0.00  0.00    -0.360 OA
HETATM   26  H   UNL     1       6.150   3.790  25.901  0.00  0.00     0.217 HD
ENDBRANCH   2  25
BRANCH   8  27
HETATM   27  C   UNL     1      -0.605   5.872  27.825  0.00  0.00     0.100 C 
BRANCH  27  28
HETATM   28  C   UNL     1      -0.506   7.205  27.133  0.00  0.00    -0.052 A 
HETATM   29  C   UNL     1      -0.636   8.370  27.899  0.00  0.00     0.014 A 
HETATM   30  C   UNL     1      -0.819   9.616  27.296  0.00  0.00    -0.061 A 
HETATM   31  C   UNL     1      -1.128  10.814  28.144  0.00  0.00     0.048 C 
HETATM   32  C   UNL     1      -0.761   9.716  25.902  0.00  0.00     0.007 A 
HETATM   33  C   UNL     1      -0.580   8.569  25.125  0.00  0.00     0.001 A 
HETATM   34  C   UNL     1      -0.472   7.316  25.735  0.00  0.00     0.007 A 
ENDBRANCH  27  28
ENDBRANCH   8  27
TORSDOF 5
ENDMDL
MODEL 9
REMARK VINA RESULT:    -7.804      2.881      5.274
REMARK INTER + INTRA:         -11.032
REMARK INTER:                 -10.345
REMARK INTRA:                  -0.688
REMARK UNBOUND:                -1.175
REMARK  5 active torsions:
REMARK  status: ('A' for Active; 'I' for Inactive)
REMARK       I    between atoms: C_2  and  N_3 
REMARK    1  A    between atoms: C_2  and  C_15 
REMARK    2  A    between atoms: N_3  and  C_5 
REMARK    3  A    between atoms: C_16  and  O_17 
REMARK    4  A    between atoms: C_23  and  C_24 
REMARK    5  A    between atoms: C_24  and  C_25 
ROOT
HETATM    1  C   UNL     1       3.985   6.439  21.176  0.00  0.00     0.066 C 
HETATM    2  C   UNL     1       5.350   6.272  21.425  0.00  0.00     0.083 C 
HETATM    3  C   UNL     1       5.873   6.299  22.724  0.00  0.00     0.069 C 
HETATM    4  C   UNL     1       5.005   6.625  23.767  0.00  0.00     0.065 A 
HETATM    5  N   UNL     1       5.239   6.787  25.103  0.00  0.00    -0.277 N 
HETATM    6  H   UNL     1       6.119   6.674  25.593  0.00  0.00     0.189 HD
HETATM    7  N   UNL     1       4.180   7.203  25.802  0.00  0.00    -0.178 NA
HETATM    8  C   UNL     1       3.199   7.319  24.890  0.00  0.00     0.071 A 
HETATM    9  C   UNL     1       3.659   6.933  23.582  0.00  0.00     0.020 A 
HETATM   10  C   UNL     1       3.146   6.836  22.262  0.00  0.00     0.035 C 
ENDROOT
BRANCH   1  11
HETATM   11  C   UNL     1       3.338   6.332  19.815  0.00  0.00     0.260 C 
HETATM   12  O   UNL     1       3.808   7.111  18.982  0.00  0.00    -0.267 OA
HETATM   13  N   UNL     1       2.255   5.445  19.538  0.00  0.00    -0.318 N 
HETATM   14  C   UNL     1       1.525   4.718  20.592  0.00  0.00     0.159 C 
BRANCH  13  15
HETATM   15  C   UNL     1       1.711   5.301  18.182  0.00  0.00     0.039 A 
HETATM   16  C   UNL     1       1.940   4.163  17.390  0.00  0.00     0.069 A 
HETATM   17  C   UNL     1       1.419   4.048  16.090  0.00  0.00     0.104 A 
HETATM   18  O   UNL     1       1.678   2.875  15.420  0.00  0.00    -0.346 OA
HETATM   19  C   UNL     1       0.682   5.086  15.530  0.00  0.00     0.102 A 
HETATM   20  C   UNL     1       0.826   2.732  14.277  0.00  0.00     0.202 C 
HETATM   21  C   UNL     1       0.784   4.023  13.478  0.00  0.00     0.202 C 
HETATM   22  O   UNL     1       0.188   5.070  14.253  0.00  0.00    -0.346 OA
HETATM   23  C   UNL     1       0.404   6.209  16.297  0.00  0.00     0.042 A 
HETATM   24  C   UNL     1       0.898   6.302  17.602  0.00  0.00     0.032 A 
ENDBRANCH  13  15
ENDBRANCH   1  11
BRANCH   2  25
HETATM   25  O   UNL     1       6.295   6.120  20.442  0.00  0.00    -0.360 OA
HETATM   26  H   UNL     1       7.171   6.051  20.864  0.00  0.00     0.217 HD
ENDBRANCH   2  25
BRANCH   8  27
HETATM   27  C   UNL     1       1.929   7.954  25.351  0.00  0.00     0.100 C 
BRANCH  27  28
HETATM   28  C   UNL     1       1.924   9.432  25.065  0.00  0.00    -0.052 A 
HETATM   29  C   UNL     1       0.716  10.132  25.177  0.00  0.00     0.014 A 
HETATM   30  C   UNL     1       0.584  11.430  24.676  0.00  0.00    -0.061 A 
HETATM   31  C   UNL     1      -0.766  12.083  24.656  0.00  0.00     0.048 C 
HETATM   32  C   UNL     1       1.707  12.079  24.155  0.00  0.00     0.007 A 
HETATM   33  C   UNL     1       2.932  11.412  24.084  0.00  0.00     0.001 A 
HETATM   34  C   UNL     1       3.038  10.088  24.519  0.00  0.00     0.007 A 
ENDBRANCH  27  28
ENDBRANCH   8  27
TORSDOF 5
ENDMDL
