MODEL 1
REMARK VINA RESULT:    -9.101      0.000      0.000
REMARK INTER + INTRA:         -13.695
REMARK INTER:                 -13.198
REMARK INTRA:                  -0.497
REMARK UNBOUND:                -1.135
REMARK  7 active torsions:
REMARK  status: ('A' for Active; 'I' for Inactive)
REMARK    1  A    between atoms: N_6  and  C_8 
REMARK    2  A    between atoms: C_8  and  C_9 
REMARK    3  A    between atoms: C_14  and  N_15 
REMARK       I    between atoms: N_15  and  C_17 
REMARK    4  A    between atoms: C_17  and  C_19 
REMARK    5  A    between atoms: C_20  and  O_22 
REMARK    6  A    between atoms: C_26  and  C_30 
REMARK    7  A    between atoms: C_30  and  C_31 
ROOT
HETATM    1  C   UNL     1       2.254   7.960  25.055  0.00  0.00     0.066 A 
HETATM    2  C   UNL     1       2.897   7.791  26.288  0.00  0.00     0.083 A 
HETATM    3  C   UNL     1       2.323   8.241  27.484  0.00  0.00     0.069 A 
HETATM    4  C   UNL     1       1.052   8.703  24.996  0.00  0.00     0.035 A 
HETATM    5  C   UNL     1       0.463   9.178  26.189  0.00  0.00     0.020 A 
HETATM    6  C   UNL     1       1.111   8.929  27.393  0.00  0.00     0.065 A 
HETATM    7  C   UNL     1      -0.715   9.900  26.552  0.00  0.00     0.071 A 
HETATM    8  N   UNL     1      -0.766  10.119  27.877  0.00  0.00    -0.178 NA
HETATM    9  N   UNL     1       0.326   9.505  28.355  0.00  0.00    -0.277 N 
HETATM   10  H   UNL     1       0.487   9.527  29.355  0.00  0.00     0.189 HD
ENDROOT
BRANCH   1  11
HETATM   11  C   UNL     1       2.800   7.466  23.755  0.00  0.00     0.260 C 
HETATM   12  N   UNL     1       3.570   8.312  22.925  0.00  0.00    -0.318 N 
HETATM   13  C   UNL     1       4.142   9.605  23.315  0.00  0.00     0.159 C 
HETATM   14  O   UNL     1       2.500   6.313  23.439  0.00  0.00    -0.267 OA
BRANCH  12  15
HETATM   15  C   UNL     1       4.053   7.791  21.691  0.00  0.00     0.037 C 
HETATM   16  C   UNL     1       4.586   6.503  21.629  0.00  0.00     0.030 C 
HETATM   17  C   UNL     1       4.937   5.939  20.403  0.00  0.00     0.011 C 
HETATM   18  C   UNL     1       4.688   6.631  19.208  0.00  0.00    -0.032 C 
HETATM   19  C   UNL     1       4.251   7.962  19.279  0.00  0.00     0.011 C 
HETATM   20  C   UNL     1       3.959   8.549  20.517  0.00  0.00     0.030 C 
BRANCH  18  21
HETATM   21  C   UNL     1       4.746   5.895  17.894  0.00  0.00     0.273 C 
BRANCH  21  22
HETATM   22  N   UNL     1       3.360   5.535  17.369  0.00  0.00    -0.063 N 
HETATM   23  C   UNL     1       2.462   5.012  18.484  0.00  0.00     0.261 C 
HETATM   24  C   UNL     1       1.061   4.708  17.942  0.00  0.00     0.195 C 
HETATM   25  O   UNL     1       0.489   5.867  17.332  0.00  0.00    -0.388 OA
HETATM   26  C   UNL     1       1.260   6.292  16.205  0.00  0.00     0.195 C 
HETATM   27  C   UNL     1       2.676   6.688  16.629  0.00  0.00     0.261 C 
HETATM   28  H   UNL     1       3.495   4.783  16.682  0.00  0.00     0.280 HD
ENDBRANCH  21  22
ENDBRANCH  18  21
ENDBRANCH  12  15
ENDBRANCH   1  11
BRANCH   2  29
HETATM   29  O   UNL     1       4.136   7.223  26.429  0.00  0.00    -0.360 OA
HETATM   30  H   UNL     1       4.439   6.912  25.560  0.00  0.00     0.217 HD
ENDBRANCH   2  29
BRANCH   7  31
HETATM   31  C   UNL     1      -1.806  10.431  25.673  0.00  0.00     0.100 C 
BRANCH  31  32
HETATM   32  C   UNL     1      -1.225  11.568  24.854  0.00  0.00    -0.052 A 
HETATM   33  C   UNL     1      -0.287  12.457  25.403  0.00  0.00     0.007 A 
HETATM   34  C   UNL     1       0.257  13.487  24.635  0.00  0.00     0.001 A 
HETATM   35  C   UNL     1      -0.107  13.628  23.299  0.00  0.00     0.007 A 
HETATM   36  C   UNL     1      -1.014  12.736  22.715  0.00  0.00    -0.061 A 
HETATM   37  C   UNL     1      -1.558  11.703  23.495  0.00  0.00     0.014 A 
HETATM   38  C   UNL     1      -1.325  12.837  21.251  0.00  0.00     0.048 C 
ENDBRANCH  31  32
ENDBRANCH   7  31
TORSDOF 7
ENDMDL
MODEL 2
REMARK VINA RESULT:    -8.993      0.360      1.150
REMARK INTER + INTRA:         -13.545
REMARK INTER:                 -12.926
REMARK INTRA:                  -0.619
REMARK UNBOUND:                -1.135
REMARK  7 active torsions:
REMARK  status: ('A' for Active; 'I' for Inactive)
REMARK    1  A    between atoms: N_6  and  C_8 
REMARK    2  A    between atoms: C_8  and  C_9 
REMARK    3  A    between atoms: C_14  and  N_15 
REMARK       I    between atoms: N_15  and  C_17 
REMARK    4  A    between atoms: C_17  and  C_19 
REMARK    5  A    between atoms: C_20  and  O_22 
REMARK    6  A    between atoms: C_26  and  C_30 
REMARK    7  A    between atoms: C_30  and  C_31 
ROOT
HETATM    1  C   UNL     1       2.250   7.977  25.107  0.00  0.00     0.066 A 
HETATM    2  C   UNL     1       2.917   7.851  26.332  0.00  0.00     0.083 A 
HETATM    3  C   UNL     1       2.336   8.279  27.532  0.00  0.00     0.069 A 
HETATM    4  C   UNL     1       1.009   8.654  25.059  0.00  0.00     0.035 A 
HETATM    5  C   UNL     1       0.412   9.106  26.257  0.00  0.00     0.020 A 
HETATM    6  C   UNL     1       1.088   8.901  27.453  0.00  0.00     0.065 A 
HETATM    7  C   UNL     1      -0.798   9.767  26.632  0.00  0.00     0.071 A 
HETATM    8  N   UNL     1      -0.843   9.992  27.955  0.00  0.00    -0.178 NA
HETATM    9  N   UNL     1       0.286   9.441  28.422  0.00  0.00    -0.277 N 
HETATM   10  H   UNL     1       0.460   9.478  29.420  0.00  0.00     0.189 HD
ENDROOT
BRANCH   1  11
HETATM   11  C   UNL     1       2.804   7.504  23.802  0.00  0.00     0.260 C 
HETATM   12  N   UNL     1       3.588   8.359  22.995  0.00  0.00    -0.318 N 
HETATM   13  C   UNL     1       4.166   9.640  23.415  0.00  0.00     0.159 C 
HETATM   14  O   UNL     1       2.498   6.359  23.462  0.00  0.00    -0.267 OA
BRANCH  12  15
HETATM   15  C   UNL     1       4.078   7.857  21.756  0.00  0.00     0.037 C 
HETATM   16  C   UNL     1       4.827   6.681  21.717  0.00  0.00     0.030 C 
HETATM   17  C   UNL     1       5.196   6.115  20.497  0.00  0.00     0.011 C 
HETATM   18  C   UNL     1       4.753   6.681  19.292  0.00  0.00    -0.032 C 
HETATM   19  C   UNL     1       4.092   7.916  19.331  0.00  0.00     0.011 C 
HETATM   20  C   UNL     1       3.778   8.517  20.557  0.00  0.00     0.030 C 
BRANCH  18  21
HETATM   21  C   UNL     1       4.859   5.889  18.014  0.00  0.00     0.273 C 
BRANCH  21  22
HETATM   22  N   UNL     1       3.503   5.396  17.522  0.00  0.00    -0.063 N 
HETATM   23  C   UNL     1       2.633   4.918  18.678  0.00  0.00     0.261 C 
HETATM   24  C   UNL     1       1.257   4.478  18.165  0.00  0.00     0.195 C 
HETATM   25  O   UNL     1       0.616   5.540  17.454  0.00  0.00    -0.388 OA
HETATM   26  C   UNL     1       1.366   5.912  16.295  0.00  0.00     0.195 C 
HETATM   27  C   UNL     1       2.752   6.434  16.682  0.00  0.00     0.261 C 
HETATM   28  H   UNL     1       3.689   4.597  16.904  0.00  0.00     0.280 HD
ENDBRANCH  21  22
ENDBRANCH  18  21
ENDBRANCH  12  15
ENDBRANCH   1  11
BRANCH   2  29
HETATM   29  O   UNL     1       4.187   7.352  26.460  0.00  0.00    -0.360 OA
HETATM   30  H   UNL     1       4.175   6.405  26.239  0.00  0.00     0.217 HD
ENDBRANCH   2  29
BRANCH   7  31
HETATM   31  C   UNL     1      -1.928  10.233  25.764  0.00  0.00     0.100 C 
BRANCH  31  32
HETATM   32  C   UNL     1      -1.374  11.267  24.804  0.00  0.00    -0.052 A 
HETATM   33  C   UNL     1      -1.891  11.409  23.506  0.00  0.00     0.007 A 
HETATM   34  C   UNL     1      -1.388  12.378  22.638  0.00  0.00     0.001 A 
HETATM   35  C   UNL     1      -0.380  13.239  23.062  0.00  0.00     0.007 A 
HETATM   36  C   UNL     1       0.130  13.145  24.362  0.00  0.00    -0.061 A 
HETATM   37  C   UNL     1      -0.380  12.166  25.229  0.00  0.00     0.014 A 
HETATM   38  C   UNL     1       1.146  14.140  24.840  0.00  0.00     0.048 C 
ENDBRANCH  31  32
ENDBRANCH   7  31
TORSDOF 7
ENDMDL
MODEL 3
REMARK VINA RESULT:    -8.979      1.363      2.153
REMARK INTER + INTRA:         -13.525
REMARK INTER:                 -13.250
REMARK INTRA:                  -0.276
REMARK UNBOUND:                -1.135
REMARK  7 active torsions:
REMARK  status: ('A' for Active; 'I' for Inactive)
REMARK    1  A    between atoms: N_6  and  C_8 
REMARK    2  A    between atoms: C_8  and  C_9 
REMARK    3  A    between atoms: C_14  and  N_15 
REMARK       I    between atoms: N_15  and  C_17 
REMARK    4  A    between atoms: C_17  and  C_19 
REMARK    5  A    between atoms: C_20  and  O_22 
REMARK    6  A    between atoms: C_26  and  C_30 
REMARK    7  A    between atoms: C_30  and  C_31 
ROOT
HETATM    1  C   UNL     1       1.998   8.397  25.875  0.00  0.00     0.066 A 
HETATM    2  C   UNL     1       2.599   8.211  27.127  0.00  0.00     0.083 A 
HETATM    3  C   UNL     1       1.931   8.526  28.317  0.00  0.00     0.069 A 
HETATM    4  C   UNL     1       0.733   9.024  25.800  0.00  0.00     0.035 A 
HETATM    5  C   UNL     1       0.048   9.363  26.988  0.00  0.00     0.020 A 
HETATM    6  C   UNL     1       0.663   9.100  28.206  0.00  0.00     0.065 A 
HETATM    7  C   UNL     1      -1.211   9.944  27.334  0.00  0.00     0.071 A 
HETATM    8  N   UNL     1      -1.342  10.071  28.665  0.00  0.00    -0.178 NA
HETATM    9  N   UNL     1      -0.217   9.535  29.159  0.00  0.00    -0.277 N 
HETATM   10  H   UNL     1      -0.103   9.508  30.166  0.00  0.00     0.189 HD
ENDROOT
BRANCH   1  11
HETATM   11  C   UNL     1       2.647   8.042  24.577  0.00  0.00     0.260 C 
HETATM   12  N   UNL     1       3.012   6.708  24.290  0.00  0.00    -0.318 N 
HETATM   13  C   UNL     1       2.585   5.523  25.042  0.00  0.00     0.159 C 
HETATM   14  O   UNL     1       2.882   8.979  23.810  0.00  0.00    -0.267 OA
BRANCH  12  15
HETATM   15  C   UNL     1       3.639   6.431  23.042  0.00  0.00     0.037 C 
HETATM   16  C   UNL     1       2.990   5.654  22.082  0.00  0.00     0.030 C 
HETATM   17  C   UNL     1       3.541   5.490  20.812  0.00  0.00     0.011 C 
HETATM   18  C   UNL     1       4.717   6.168  20.457  0.00  0.00    -0.032 C 
HETATM   19  C   UNL     1       5.420   6.862  21.452  0.00  0.00     0.011 C 
HETATM   20  C   UNL     1       4.897   6.972  22.747  0.00  0.00     0.030 C 
BRANCH  18  21
HETATM   21  C   UNL     1       5.113   6.264  19.006  0.00  0.00     0.273 C 
BRANCH  21  22
HETATM   22  N   UNL     1       4.141   7.111  18.194  0.00  0.00    -0.063 N 
HETATM   23  C   UNL     1       3.157   6.242  17.421  0.00  0.00     0.261 C 
HETATM   24  C   UNL     1       2.158   7.117  16.655  0.00  0.00     0.195 C 
HETATM   25  O   UNL     1       1.466   7.997  17.545  0.00  0.00    -0.388 OA
HETATM   26  C   UNL     1       2.370   8.902  18.184  0.00  0.00     0.195 C 
HETATM   27  C   UNL     1       3.390   8.146  19.039  0.00  0.00     0.261 C 
HETATM   28  H   UNL     1       4.707   7.639  17.519  0.00  0.00     0.280 HD
ENDBRANCH  21  22
ENDBRANCH  18  21
ENDBRANCH  12  15
ENDBRANCH   1  11
BRANCH   2  29
HETATM   29  O   UNL     1       3.880   7.756  27.296  0.00  0.00    -0.360 OA
HETATM   30  H   UNL     1       4.490   8.353  26.830  0.00  0.00     0.217 HD
ENDBRANCH   2  29
BRANCH   7  31
HETATM   31  C   UNL     1      -2.308  10.425  26.434  0.00  0.00     0.100 C 
BRANCH  31  32
HETATM   32  C   UNL     1      -1.670  11.221  25.313  0.00  0.00    -0.052 A 
HETATM   33  C   UNL     1      -2.128  11.116  23.990  0.00  0.00     0.007 A 
HETATM   34  C   UNL     1      -1.546  11.868  22.969  0.00  0.00     0.001 A 
HETATM   35  C   UNL     1      -0.516  12.758  23.258  0.00  0.00     0.007 A 
HETATM   36  C   UNL     1      -0.061  12.910  24.573  0.00  0.00    -0.061 A 
HETATM   37  C   UNL     1      -0.650  12.147  25.595  0.00  0.00     0.014 A 
HETATM   38  C   UNL     1       0.982  13.940  24.890  0.00  0.00     0.048 C 
ENDBRANCH  31  32
ENDBRANCH   7  31
TORSDOF 7
ENDMDL
MODEL 4
REMARK VINA RESULT:    -8.918      1.080      1.283
REMARK INTER + INTRA:         -13.441
REMARK INTER:                 -13.066
REMARK INTRA:                  -0.375
REMARK UNBOUND:                -1.135
REMARK  7 active torsions:
REMARK  status: ('A' for Active; 'I' for Inactive)
REMARK    1  A    between atoms: N_6  and  C_8 
REMARK    2  A    between atoms: C_8  and  C_9 
REMARK    3  A    between atoms: C_14  and  N_15 
REMARK       I    between atoms: N_15  and  C_17 
REMARK    4  A    between atoms: C_17  and  C_19 
REMARK    5  A    between atoms: C_20  and  O_22 
REMARK    6  A    between atoms: C_26  and  C_30 
REMARK    7  A    between atoms: C_30  and  C_31 
ROOT
HETATM    1  C   UNL     1       1.702   8.529  25.659  0.00  0.00     0.066 A 
HETATM    2  C   UNL     1       2.061   8.446  27.010  0.00  0.00     0.083 A 
HETATM    3  C   UNL     1       1.208   8.897  28.026  0.00  0.00     0.069 A 
HETATM    4  C   UNL     1       0.502   9.186  25.298  0.00  0.00     0.035 A 
HETATM    5  C   UNL     1      -0.365   9.661  26.306  0.00  0.00     0.020 A 
HETATM    6  C   UNL     1       0.010   9.498  27.635  0.00  0.00     0.065 A 
HETATM    7  C   UNL     1      -1.635  10.313  26.364  0.00  0.00     0.071 A 
HETATM    8  N   UNL     1      -1.995  10.574  27.632  0.00  0.00    -0.178 NA
HETATM    9  N   UNL     1      -1.004  10.052  28.370  0.00  0.00    -0.277 N 
HETATM   10  H   UNL     1      -1.072  10.119  29.379  0.00  0.00     0.189 HD
ENDROOT
BRANCH   1  11
HETATM   11  C   UNL     1       2.553   8.029  24.537  0.00  0.00     0.260 C 
HETATM   12  N   UNL     1       3.372   8.913  23.799  0.00  0.00    -0.318 N 
HETATM   13  C   UNL     1       3.698  10.292  24.175  0.00  0.00     0.159 C 
HETATM   14  O   UNL     1       2.459   6.828  24.273  0.00  0.00    -0.267 OA
BRANCH  12  15
HETATM   15  C   UNL     1       4.151   8.382  22.733  0.00  0.00     0.037 C 
HETATM   16  C   UNL     1       4.928   7.240  22.927  0.00  0.00     0.030 C 
HETATM   17  C   UNL     1       5.588   6.640  21.855  0.00  0.00     0.011 C 
HETATM   18  C   UNL     1       5.417   7.133  20.553  0.00  0.00    -0.032 C 
HETATM   19  C   UNL     1       4.722   8.338  20.375  0.00  0.00     0.011 C 
HETATM   20  C   UNL     1       4.114   8.975  21.464  0.00  0.00     0.030 C 
BRANCH  18  21
HETATM   21  C   UNL     1       5.842   6.293  19.376  0.00  0.00     0.273 C 
BRANCH  21  22
HETATM   22  N   UNL     1       4.663   5.606  18.697  0.00  0.00    -0.063 N 
HETATM   23  C   UNL     1       3.740   4.949  19.715  0.00  0.00     0.261 C 
HETATM   24  C   UNL     1       2.535   4.313  19.013  0.00  0.00     0.195 C 
HETATM   25  O   UNL     1       1.826   5.284  18.239  0.00  0.00    -0.388 OA
HETATM   26  C   UNL     1       2.650   5.817  17.199  0.00  0.00     0.195 C 
HETATM   27  C   UNL     1       3.867   6.541  17.780  0.00  0.00     0.261 C 
HETATM   28  H   UNL     1       5.058   4.872  18.097  0.00  0.00     0.280 HD
ENDBRANCH  21  22
ENDBRANCH  18  21
ENDBRANCH  12  15
ENDBRANCH   1  11
BRANCH   2  29
HETATM   29  O   UNL     1       3.267   7.969  27.450  0.00  0.00    -0.360 OA
HETATM   30  H   UNL     1       3.888   8.712  27.532  0.00  0.00     0.217 HD
ENDBRANCH   2  29
BRANCH   7  31
HETATM   31  C   UNL     1      -2.530  10.739  25.240  0.00  0.00     0.100 C 
BRANCH  31  32
HETATM   32  C   UNL     1      -1.768  11.744  24.400  0.00  0.00    -0.052 A 
HETATM   33  C   UNL     1      -0.751  12.538  24.955  0.00  0.00     0.007 A 
HETATM   34  C   UNL     1      -0.041  13.445  24.168  0.00  0.00     0.001 A 
HETATM   35  C   UNL     1      -0.317  13.554  22.808  0.00  0.00     0.007 A 
HETATM   36  C   UNL     1      -1.300  12.751  22.219  0.00  0.00    -0.061 A 
HETATM   37  C   UNL     1      -2.012  11.842  23.019  0.00  0.00     0.014 A 
HETATM   38  C   UNL     1      -1.523  12.806  20.737  0.00  0.00     0.048 C 
ENDBRANCH  31  32
ENDBRANCH   7  31
TORSDOF 7
ENDMDL
MODEL 5
REMARK VINA RESULT:    -8.805      1.519      1.983
REMARK INTER + INTRA:         -13.285
REMARK INTER:                 -12.290
REMARK INTRA:                  -0.995
REMARK UNBOUND:                -1.135
REMARK  7 active torsions:
REMARK  status: ('A' for Active; 'I' for Inactive)
REMARK    1  A    between atoms: N_6  and  C_8 
REMARK    2  A    between atoms: C_8  and  C_9 
REMARK    3  A    between atoms: C_14  and  N_15 
REMARK       I    between atoms: N_15  and  C_17 
REMARK    4  A    between atoms: C_17  and  C_19 
REMARK    5  A    between atoms: C_20  and  O_22 
REMARK    6  A    between atoms: C_26  and  C_30 
REMARK    7  A    between atoms: C_30  and  C_31 
ROOT
HETATM    1  C   UNL     1       1.647   8.347  25.751  0.00  0.00     0.066 A 
HETATM    2  C   UNL     1       2.027   8.361  27.099  0.00  0.00     0.083 A 
HETATM    3  C   UNL     1       1.220   8.945  28.083  0.00  0.00     0.069 A 
HETATM    4  C   UNL     1       0.478   9.037  25.352  0.00  0.00     0.035 A 
HETATM    5  C   UNL     1      -0.343   9.645  26.328  0.00  0.00     0.020 A 
HETATM    6  C   UNL     1       0.049   9.576  27.659  0.00  0.00     0.065 A 
HETATM    7  C   UNL     1      -1.574  10.370  26.347  0.00  0.00     0.071 A 
HETATM    8  N   UNL     1      -1.894  10.758  27.593  0.00  0.00    -0.178 NA
HETATM    9  N   UNL     1      -0.919  10.247  28.358  0.00  0.00    -0.277 N 
HETATM   10  H   UNL     1      -0.964  10.404  29.358  0.00  0.00     0.189 HD
ENDROOT
BRANCH   1  11
HETATM   11  C   UNL     1       2.448   7.705  24.664  0.00  0.00     0.260 C 
HETATM   12  N   UNL     1       3.353   8.463  23.888  0.00  0.00    -0.318 N 
HETATM   13  C   UNL     1       3.814   9.821  24.193  0.00  0.00     0.159 C 
HETATM   14  O   UNL     1       2.235   6.508  24.463  0.00  0.00    -0.267 OA
BRANCH  12  15
HETATM   15  C   UNL     1       4.079   7.801  22.858  0.00  0.00     0.037 C 
HETATM   16  C   UNL     1       5.037   6.838  23.176  0.00  0.00     0.030 C 
HETATM   17  C   UNL     1       5.655   6.093  22.173  0.00  0.00     0.011 C 
HETATM   18  C   UNL     1       5.266   6.249  20.834  0.00  0.00    -0.032 C 
HETATM   19  C   UNL     1       4.382   7.287  20.506  0.00  0.00     0.011 C 
HETATM   20  C   UNL     1       3.810   8.078  21.511  0.00  0.00     0.030 C 
BRANCH  18  21
HETATM   21  C   UNL     1       5.679   5.220  19.813  0.00  0.00     0.273 C 
BRANCH  21  22
HETATM   22  N   UNL     1       4.559   4.235  19.497  0.00  0.00    -0.063 N 
HETATM   23  C   UNL     1       3.764   4.671  18.272  0.00  0.00     0.261 C 
HETATM   24  C   UNL     1       2.679   3.638  17.944  0.00  0.00     0.195 C 
HETATM   25  O   UNL     1       3.253   2.345  17.742  0.00  0.00    -0.388 OA
HETATM   26  C   UNL     1       3.896   1.873  18.929  0.00  0.00     0.195 C 
HETATM   27  C   UNL     1       5.051   2.794  19.329  0.00  0.00     0.261 C 
HETATM   28  H   UNL     1       3.930   4.238  20.309  0.00  0.00     0.280 HD
ENDBRANCH  21  22
ENDBRANCH  18  21
ENDBRANCH  12  15
ENDBRANCH   1  11
BRANCH   2  29
HETATM   29  O   UNL     1       3.214   7.856  27.560  0.00  0.00    -0.360 OA
HETATM   30  H   UNL     1       3.027   7.179  28.233  0.00  0.00     0.217 HD
ENDBRANCH   2  29
BRANCH   7  31
HETATM   31  C   UNL     1      -2.466  10.747  25.204  0.00  0.00     0.100 C 
BRANCH  31  32
HETATM   32  C   UNL     1      -1.726  11.765  24.359  0.00  0.00    -0.052 A 
HETATM   33  C   UNL     1      -0.691  12.546  24.897  0.00  0.00     0.007 A 
HETATM   34  C   UNL     1      -0.003  13.466  24.106  0.00  0.00     0.001 A 
HETATM   35  C   UNL     1      -0.319  13.601  22.758  0.00  0.00     0.007 A 
HETATM   36  C   UNL     1      -1.322  12.811  22.184  0.00  0.00    -0.061 A 
HETATM   37  C   UNL     1      -2.012  11.889  22.988  0.00  0.00     0.014 A 
HETATM   38  C   UNL     1      -1.589  12.894  20.710  0.00  0.00     0.048 C 
ENDBRANCH  31  32
ENDBRANCH   7  31
TORSDOF 7
ENDMDL
MODEL 6
REMARK VINA RESULT:    -8.473      3.551      9.589
REMARK INTER + INTRA:         -12.828
REMARK INTER:                 -11.781
REMARK INTRA:                  -1.047
REMARK UNBOUND:                -1.135
REMARK  7 active torsions:
REMARK  status: ('A' for Active; 'I' for Inactive)
REMARK    1  A    between atoms: N_6  and  C_8 
REMARK    2  A    between atoms: C_8  and  C_9 
REMARK    3  A    between atoms: C_14  and  N_15 
REMARK       I    between atoms: N_15  and  C_17 
REMARK    4  A    between atoms: C_17  and  C_19 
REMARK    5  A    between atoms: C_20  and  O_22 
REMARK    6  A    between atoms: C_26  and  C_30 
REMARK    7  A    between atoms: C_30  and  C_31 
ROOT
HETATM    1  C   UNL     1       4.349   6.469  22.749  0.00  0.00     0.066 A 
HETATM    2  C   UNL     1       5.724   6.205  22.707  0.00  0.00     0.083 A 
HETATM    3  C   UNL     1       6.515   6.598  21.620  0.00  0.00     0.069 A 
HETATM    4  C   UNL     1       3.718   7.043  21.620  0.00  0.00     0.035 A 
HETATM    5  C   UNL     1       4.496   7.434  20.507  0.00  0.00     0.020 A 
HETATM    6  C   UNL     1       5.866   7.206  20.543  0.00  0.00     0.065 A 
HETATM    7  C   UNL     1       4.264   8.059  19.244  0.00  0.00     0.071 A 
HETATM    8  N   UNL     1       5.400   8.167  18.535  0.00  0.00    -0.178 NA
HETATM    9  N   UNL     1       6.344   7.672  19.348  0.00  0.00    -0.277 N 
HETATM   10  H   UNL     1       7.303   7.667  19.020  0.00  0.00     0.189 HD
ENDROOT
BRANCH   1  11
HETATM   11  C   UNL     1       3.464   6.108  23.898  0.00  0.00     0.260 C 
HETATM   12  N   UNL     1       3.094   7.075  24.859  0.00  0.00    -0.318 N 
HETATM   13  C   UNL     1       3.275   8.525  24.728  0.00  0.00     0.159 C 
HETATM   14  O   UNL     1       3.126   4.925  23.976  0.00  0.00    -0.267 OA
BRANCH  12  15
HETATM   15  C   UNL     1       2.260   6.670  25.939  0.00  0.00     0.037 C 
HETATM   16  C   UNL     1       2.790   5.942  27.005  0.00  0.00     0.030 C 
HETATM   17  C   UNL     1       2.011   5.658  28.126  0.00  0.00     0.011 C 
HETATM   18  C   UNL     1       0.707   6.166  28.229  0.00  0.00    -0.032 C 
HETATM   19  C   UNL     1       0.143   6.806  27.117  0.00  0.00     0.011 C 
HETATM   20  C   UNL     1       0.908   7.035  25.965  0.00  0.00     0.030 C 
BRANCH  18  21
HETATM   21  C   UNL     1       0.005   6.150  29.563  0.00  0.00     0.273 C 
BRANCH  21  22
HETATM   22  N   UNL     1       0.851   6.766  30.671  0.00  0.00    -0.063 N 
HETATM   23  C   UNL     1       1.005   8.270  30.482  0.00  0.00     0.261 C 
HETATM   24  C   UNL     1       1.814   8.874  31.636  0.00  0.00     0.195 C 
HETATM   25  O   UNL     1       1.202   8.581  32.894  0.00  0.00    -0.388 OA
HETATM   26  C   UNL     1       1.165   7.173  33.137  0.00  0.00     0.195 C 
HETATM   27  C   UNL     1       0.326   6.456  32.076  0.00  0.00     0.261 C 
HETATM   28  H   UNL     1       1.780   6.334  30.603  0.00  0.00     0.280 HD
ENDBRANCH  21  22
ENDBRANCH  18  21
ENDBRANCH  12  15
ENDBRANCH   1  11
BRANCH   2  29
HETATM   29  O   UNL     1       6.397   5.516  23.681  0.00  0.00    -0.360 OA
HETATM   30  H   UNL     1       5.933   5.635  24.527  0.00  0.00     0.217 HD
ENDBRANCH   2  29
BRANCH   7  31
HETATM   31  C   UNL     1       2.975   8.543  18.652  0.00  0.00     0.100 C 
BRANCH  31  32
HETATM   32  C   UNL     1       2.413   7.425  17.795  0.00  0.00    -0.052 A 
HETATM   33  C   UNL     1       1.849   7.684  16.536  0.00  0.00     0.007 A 
HETATM   34  C   UNL     1       1.354   6.646  15.747  0.00  0.00     0.001 A 
HETATM   35  C   UNL     1       1.440   5.330  16.191  0.00  0.00     0.007 A 
HETATM   36  C   UNL     1       2.030   5.038  17.426  0.00  0.00    -0.061 A 
HETATM   37  C   UNL     1       2.523   6.088  18.216  0.00  0.00     0.014 A 
HETATM   38  C   UNL     1       2.205   3.610  17.852  0.00  0.00     0.048 C 
ENDBRANCH  31  32
ENDBRANCH   7  31
TORSDOF 7
ENDMDL
MODEL 7
REMARK VINA RESULT:    -8.463      3.971      9.327
REMARK INTER + INTRA:         -12.813
REMARK INTER:                 -11.512
REMARK INTRA:                  -1.302
REMARK UNBOUND:                -1.135
REMARK  7 active torsions:
REMARK  status: ('A' for Active; 'I' for Inactive)
REMARK    1  A    between atoms: N_6  and  C_8 
REMARK    2  A    between atoms: C_8  and  C_9 
REMARK    3  A    between atoms: C_14  and  N_15 
REMARK       I    between atoms: N_15  and  C_17 
REMARK    4  A    between atoms: C_17  and  C_19 
REMARK    5  A    between atoms: C_20  and  O_22 
REMARK    6  A    between atoms: C_26  and  C_30 
REMARK    7  A    between atoms: C_30  and  C_31 
ROOT
HETATM    1  C   UNL     1       4.412   6.870  22.903  0.00  0.00     0.066 A 
HETATM    2  C   UNL     1       5.728   6.407  22.776  0.00  0.00     0.083 A 
HETATM    3  C   UNL     1       6.455   6.575  21.591  0.00  0.00     0.069 A 
HETATM    4  C   UNL     1       3.758   7.419  21.776  0.00  0.00     0.035 A 
HETATM    5  C   UNL     1       4.468   7.584  20.566  0.00  0.00     0.020 A 
HETATM    6  C   UNL     1       5.792   7.164  20.512  0.00  0.00     0.065 A 
HETATM    7  C   UNL     1       4.201   8.112  19.266  0.00  0.00     0.071 A 
HETATM    8  N   UNL     1       5.266   7.985  18.457  0.00  0.00    -0.178 NA
HETATM    9  N   UNL     1       6.209   7.439  19.237  0.00  0.00    -0.277 N 
HETATM   10  H   UNL     1       7.122   7.263  18.833  0.00  0.00     0.189 HD
ENDROOT
BRANCH   1  11
HETATM   11  C   UNL     1       3.603   6.754  24.154  0.00  0.00     0.260 C 
HETATM   12  N   UNL     1       2.895   5.568  24.452  0.00  0.00    -0.318 N 
HETATM   13  C   UNL     1       3.064   4.278  23.774  0.00  0.00     0.159 C 
HETATM   14  O   UNL     1       3.557   7.757  24.870  0.00  0.00    -0.267 OA
BRANCH  12  15
HETATM   15  C   UNL     1       2.131   5.519  25.652  0.00  0.00     0.037 C 
HETATM   16  C   UNL     1       2.667   4.950  26.807  0.00  0.00     0.030 C 
HETATM   17  C   UNL     1       1.977   5.018  28.017  0.00  0.00     0.011 C 
HETATM   18  C   UNL     1       0.768   5.726  28.104  0.00  0.00    -0.032 C 
HETATM   19  C   UNL     1       0.182   6.205  26.923  0.00  0.00     0.011 C 
HETATM   20  C   UNL     1       0.848   6.079  25.697  0.00  0.00     0.030 C 
BRANCH  18  21
HETATM   21  C   UNL     1       0.211   6.086  29.457  0.00  0.00     0.273 C 
BRANCH  21  22
HETATM   22  N   UNL     1       1.215   6.849  30.314  0.00  0.00    -0.063 N 
HETATM   23  C   UNL     1       1.515   8.223  29.728  0.00  0.00     0.261 C 
HETATM   24  C   UNL     1       2.484   8.990  30.634  0.00  0.00     0.195 C 
HETATM   25  O   UNL     1       1.958   9.107  31.958  0.00  0.00    -0.388 OA
HETATM   26  C   UNL     1       1.790   7.823  32.563  0.00  0.00     0.195 C 
HETATM   27  C   UNL     1       0.786   6.975  31.779  0.00  0.00     0.261 C 
HETATM   28  H   UNL     1       2.081   6.298  30.308  0.00  0.00     0.280 HD
ENDBRANCH  21  22
ENDBRANCH  18  21
ENDBRANCH  12  15
ENDBRANCH   1  11
BRANCH   2  29
HETATM   29  O   UNL     1       6.393   5.724  23.760  0.00  0.00    -0.360 OA
HETATM   30  H   UNL     1       7.098   5.193  23.353  0.00  0.00     0.217 HD
ENDBRANCH   2  29
BRANCH   7  31
HETATM   31  C   UNL     1       2.938   8.719  18.734  0.00  0.00     0.100 C 
BRANCH  31  32
HETATM   32  C   UNL     1       2.153   7.619  18.046  0.00  0.00    -0.052 A 
HETATM   33  C   UNL     1       1.893   7.661  16.667  0.00  0.00     0.007 A 
HETATM   34  C   UNL     1       1.187   6.634  16.040  0.00  0.00     0.001 A 
HETATM   35  C   UNL     1       0.754   5.535  16.776  0.00  0.00     0.007 A 
HETATM   36  C   UNL     1       1.029   5.448  18.145  0.00  0.00    -0.061 A 
HETATM   37  C   UNL     1       1.738   6.487  18.770  0.00  0.00     0.014 A 
HETATM   38  C   UNL     1       0.644   4.216  18.909  0.00  0.00     0.048 C 
ENDBRANCH  31  32
ENDBRANCH   7  31
TORSDOF 7
ENDMDL
MODEL 8
REMARK VINA RESULT:    -8.332      2.089      3.301
REMARK INTER + INTRA:         -12.633
REMARK INTER:                 -11.908
REMARK INTRA:                  -0.725
REMARK UNBOUND:                -1.135
REMARK  7 active torsions:
REMARK  status: ('A' for Active; 'I' for Inactive)
REMARK    1  A    between atoms: N_6  and  C_8 
REMARK    2  A    between atoms: C_8  and  C_9 
REMARK    3  A    between atoms: C_14  and  N_15 
REMARK       I    between atoms: N_15  and  C_17 
REMARK    4  A    between atoms: C_17  and  C_19 
REMARK    5  A    between atoms: C_20  and  O_22 
REMARK    6  A    between atoms: C_26  and  C_30 
REMARK    7  A    between atoms: C_30  and  C_31 
ROOT
HETATM    1  C   UNL     1       3.682   6.856  22.734  0.00  0.00     0.066 A 
HETATM    2  C   UNL     1       4.962   6.665  23.270  0.00  0.00     0.083 A 
HETATM    3  C   UNL     1       5.212   6.798  24.642  0.00  0.00     0.069 A 
HETATM    4  C   UNL     1       2.638   7.304  23.576  0.00  0.00     0.035 A 
HETATM    5  C   UNL     1       2.872   7.458  24.961  0.00  0.00     0.020 A 
HETATM    6  C   UNL     1       4.146   7.196  25.450  0.00  0.00     0.065 A 
HETATM    7  C   UNL     1       2.110   7.832  26.110  0.00  0.00     0.071 A 
HETATM    8  N   UNL     1       2.869   7.843  27.218  0.00  0.00    -0.178 NA
HETATM    9  N   UNL     1       4.074   7.434  26.797  0.00  0.00    -0.277 N 
HETATM   10  H   UNL     1       4.817   7.350  27.481  0.00  0.00     0.189 HD
ENDROOT
BRANCH   1  11
HETATM   11  C   UNL     1       3.350   6.690  21.287  0.00  0.00     0.260 C 
HETATM   12  N   UNL     1       3.613   7.723  20.360  0.00  0.00    -0.318 N 
HETATM   13  C   UNL     1       4.445   8.905  20.609  0.00  0.00     0.159 C 
HETATM   14  O   UNL     1       2.798   5.633  20.971  0.00  0.00    -0.267 OA
BRANCH  12  15
HETATM   15  C   UNL     1       3.263   7.513  18.996  0.00  0.00     0.037 C 
HETATM   16  C   UNL     1       3.794   6.435  18.288  0.00  0.00     0.030 C 
HETATM   17  C   UNL     1       3.354   6.148  16.997  0.00  0.00     0.011 C 
HETATM   18  C   UNL     1       2.316   6.895  16.420  0.00  0.00    -0.032 C 
HETATM   19  C   UNL     1       1.857   8.039  17.089  0.00  0.00     0.011 C 
HETATM   20  C   UNL     1       2.347   8.363  18.362  0.00  0.00     0.030 C 
BRANCH  18  21
HETATM   21  C   UNL     1       1.619   6.376  15.189  0.00  0.00     0.273 C 
BRANCH  21  22
HETATM   22  N   UNL     1       1.003   4.999  15.408  0.00  0.00    -0.063 N 
HETATM   23  C   UNL     1       0.125   4.975  16.653  0.00  0.00     0.261 C 
HETATM   24  C   UNL     1      -0.525   3.597  16.822  0.00  0.00     0.195 C 
HETATM   25  O   UNL     1      -1.282   3.246  15.662  0.00  0.00    -0.388 OA
HETATM   26  C   UNL     1      -0.444   3.145  14.508  0.00  0.00     0.195 C 
HETATM   27  C   UNL     1       0.221   4.487  14.194  0.00  0.00     0.261 C 
HETATM   28  H   UNL     1       1.784   4.349  15.549  0.00  0.00     0.280 HD
ENDBRANCH  21  22
ENDBRANCH  18  21
ENDBRANCH  12  15
ENDBRANCH   1  11
BRANCH   2  29
HETATM   29  O   UNL     1       6.069   6.382  22.514  0.00  0.00    -0.360 OA
HETATM   30  H   UNL     1       6.049   6.928  21.710  0.00  0.00     0.217 HD
ENDBRANCH   2  29
BRANCH   7  31
HETATM   31  C   UNL     1       0.665   8.219  26.200  0.00  0.00     0.100 C 
BRANCH  31  32
HETATM   32  C   UNL     1       0.495   9.538  25.473  0.00  0.00    -0.052 A 
HETATM   33  C   UNL     1       1.595  10.366  25.197  0.00  0.00     0.007 A 
HETATM   34  C   UNL     1       1.431  11.569  24.510  0.00  0.00     0.001 A 
HETATM   35  C   UNL     1       0.169  11.950  24.062  0.00  0.00     0.007 A 
HETATM   36  C   UNL     1      -0.940  11.128  24.291  0.00  0.00    -0.061 A 
HETATM   37  C   UNL     1      -0.767   9.920  24.986  0.00  0.00     0.014 A 
HETATM   38  C   UNL     1      -2.277  11.500  23.721  0.00  0.00     0.048 C 
ENDBRANCH  31  32
ENDBRANCH   7  31
TORSDOF 7
ENDMDL
MODEL 9
REMARK VINA RESULT:    -8.172      2.672      4.680
REMARK INTER + INTRA:         -12.412
REMARK INTER:                 -11.277
REMARK INTRA:                  -1.135
REMARK UNBOUND:                -1.135
REMARK  7 active torsions:
REMARK  status: ('A' for Active; 'I' for Inactive)
REMARK    1  A    between atoms: N_6  and  C_8 
REMARK    2  A    between atoms: C_8  and  C_9 
REMARK    3  A    between atoms: C_14  and  N_15 
REMARK       I    between atoms: N_15  and  C_17 
REMARK    4  A    between atoms: C_17  and  C_19 
REMARK    5  A    between atoms: C_20  and  O_22 
REMARK    6  A    between atoms: C_26  and  C_30 
REMARK    7  A    between atoms: C_30  and  C_31 
ROOT
HETATM    1  C   UNL     1       3.692   6.233  21.612  0.00  0.00     0.066 A 
HETATM    2  C   UNL     1       5.080   6.090  21.742  0.00  0.00     0.083 A 
HETATM    3  C   UNL     1       5.723   6.261  22.974  0.00  0.00     0.069 A 
HETATM    4  C   UNL     1       2.933   6.671  22.721  0.00  0.00     0.035 A 
HETATM    5  C   UNL     1       3.565   6.863  23.970  0.00  0.00     0.020 A 
HETATM    6  C   UNL     1       4.935   6.648  24.059  0.00  0.00     0.065 A 
HETATM    7  C   UNL     1       3.169   7.241  25.290  0.00  0.00     0.071 A 
HETATM    8  N   UNL     1       4.224   7.299  26.120  0.00  0.00    -0.178 NA
HETATM    9  N   UNL     1       5.261   6.914  25.362  0.00  0.00    -0.277 N 
HETATM   10  H   UNL     1       6.177   6.867  25.793  0.00  0.00     0.189 HD
ENDROOT
BRANCH   1  11
HETATM   11  C   UNL     1       2.948   6.024  20.333  0.00  0.00     0.260 C 
HETATM   12  N   UNL     1       2.787   7.080  19.408  0.00  0.00    -0.318 N 
HETATM   13  C   UNL     1       3.511   8.356  19.431  0.00  0.00     0.159 C 
HETATM   14  O   UNL     1       2.452   4.908  20.164  0.00  0.00    -0.267 OA
BRANCH  12  15
HETATM   15  C   UNL     1       2.057   6.827  18.212  0.00  0.00     0.037 C 
HETATM   16  C   UNL     1       2.723   6.698  16.992  0.00  0.00     0.030 C 
HETATM   17  C   UNL     1       2.030   6.320  15.843  0.00  0.00     0.011 C 
HETATM   18  C   UNL     1       0.668   5.989  15.914  0.00  0.00    -0.032 C 
HETATM   19  C   UNL     1      -0.019   6.219  17.114  0.00  0.00     0.011 C 
HETATM   20  C   UNL     1       0.667   6.661  18.253  0.00  0.00     0.030 C 
BRANCH  18  21
HETATM   21  C   UNL     1       0.017   5.261  14.765  0.00  0.00     0.273 C 
BRANCH  21  22
HETATM   22  N   UNL     1       0.922   4.188  14.171  0.00  0.00    -0.063 N 
HETATM   23  C   UNL     1       1.020   2.974  15.086  0.00  0.00     0.261 C 
HETATM   24  C   UNL     1       1.892   1.890  14.443  0.00  0.00     0.195 C 
HETATM   25  O   UNL     1       1.378   1.518  13.162  0.00  0.00    -0.388 OA
HETATM   26  C   UNL     1       1.398   2.624  12.256  0.00  0.00     0.195 C 
HETATM   27  C   UNL     1       0.506   3.761  12.760  0.00  0.00     0.261 C 
HETATM   28  H   UNL     1       1.856   4.608  14.087  0.00  0.00     0.280 HD
ENDBRANCH  21  22
ENDBRANCH  18  21
ENDBRANCH  12  15
ENDBRANCH   1  11
BRANCH   2  29
HETATM   29  O   UNL     1       5.919   5.821  20.693  0.00  0.00    -0.360 OA
HETATM   30  H   UNL     1       6.328   4.950  20.833  0.00  0.00     0.217 HD
ENDBRANCH   2  29
BRANCH   7  31
HETATM   31  C   UNL     1       1.805   7.589  25.803  0.00  0.00     0.100 C 
BRANCH  31  32
HETATM   32  C   UNL     1       1.483   8.996  25.338  0.00  0.00    -0.052 A 
HETATM   33  C   UNL     1       2.500   9.910  25.020  0.00  0.00     0.007 A 
HETATM   34  C   UNL     1       2.193  11.196  24.573  0.00  0.00     0.001 A 
HETATM   35  C   UNL     1       0.865  11.579  24.411  0.00  0.00     0.007 A 
HETATM   36  C   UNL     1      -0.170  10.678  24.686  0.00  0.00    -0.061 A 
HETATM   37  C   UNL     1       0.147   9.386  25.137  0.00  0.00     0.014 A 
HETATM   38  C   UNL     1      -1.593  11.067  24.415  0.00  0.00     0.048 C 
ENDBRANCH  31  32
ENDBRANCH   7  31
TORSDOF 7
ENDMDL
