MODEL 1
REMARK VINA RESULT:    -7.546      0.000      0.000
REMARK INTER + INTRA:          -9.645
REMARK INTER:                  -9.023
REMARK INTRA:                  -0.622
REMARK UNBOUND:                -0.555
REMARK  4 active torsions:
REMARK  status: ('A' for Active; 'I' for Inactive)
REMARK    1  A    between atoms: C_2  and  O_3 
REMARK    2  A    between atoms: O_3  and  C_4 
REMARK       I    between atoms: N_11  and  C_12 
REMARK    3  A    between atoms: C_12  and  C_14 
REMARK    4  A    between atoms: C_16  and  N_17 
ROOT
HETATM    1  C   UNL     1       1.302   8.434  27.761  0.00  0.00     0.140 A 
HETATM    2  N   UNL     1       1.393   8.884  29.035  0.00  0.00    -0.212 NA
HETATM    3  C   UNL     1       2.510   8.581  29.690  0.00  0.00     0.200 A 
HETATM    4  N   UNL     1       3.473   7.785  29.239  0.00  0.00    -0.218 NA
HETATM    5  C   UNL     1       3.382   7.327  27.988  0.00  0.00     0.073 A 
HETATM    6  C   UNL     1       4.362   6.445  27.535  0.00  0.00     0.033 C 
HETATM    7  C   UNL     1       4.349   5.918  26.242  0.00  0.00     0.009 C 
HETATM    8  C   UNL     1       3.372   6.327  25.346  0.00  0.00    -0.061 C 
HETATM    9  C   UNL     1       3.261   5.750  23.967  0.00  0.00     0.048 C 
HETATM   10  C   UNL     1       2.404   7.235  25.784  0.00  0.00     0.023 C 
HETATM   11  C   UNL     1       2.334   7.680  27.137  0.00  0.00     0.028 A 
ENDROOT
BRANCH   1  12
HETATM   12  C   UNL     1      -0.030   8.655  27.051  0.00  0.00     0.274 C 
HETATM   13  N   UNL     1      -0.240   9.671  26.123  0.00  0.00    -0.338 N 
HETATM   14  C   UNL     1      -1.576   9.797  25.529  0.00  0.00     0.165 A 
HETATM   15  C   UNL     1       0.694  10.662  25.583  0.00  0.00     0.165 A 
HETATM   16  C   UNL     1      -1.433  10.899  24.533  0.00  0.00    -0.030 A 
HETATM   17  C   UNL     1      -0.125  11.390  24.551  0.00  0.00    -0.032 A 
HETATM   18  C   UNL     1      -2.387  11.403  23.657  0.00  0.00     0.046 A 
HETATM   19  C   UNL     1       0.254  12.393  23.670  0.00  0.00     0.012 A 
HETATM   20  C   UNL     1      -0.702  12.893  22.766  0.00  0.00     0.037 A 
HETATM   21  C   UNL     1      -2.024  12.415  22.766  0.00  0.00     0.069 A 
HETATM   22  O   UNL     1      -0.989   7.927  27.319  0.00  0.00    -0.266 OA
BRANCH  21  23
HETATM   23  O   UNL     1      -3.035  12.844  21.947  0.00  0.00    -0.352 OA
BRANCH  23  24
HETATM   24  C   UNL     1      -2.699  13.177  20.599  0.00  0.00     0.171 C 
HETATM   25  C   UNL     1      -3.644  14.271  20.127  0.00  0.00     0.034 C 
ENDBRANCH  23  24
ENDBRANCH  21  23
ENDBRANCH   1  12
BRANCH   3  26
HETATM   26  N   UNL     1       2.692   9.100  30.951  0.00  0.00    -0.271 NA
HETATM   27  H   UNL     1       2.276  10.012  31.042  0.00  0.00     0.127 HD
HETATM   28  H   UNL     1       2.453   8.403  31.648  0.00  0.00     0.127 HD
ENDBRANCH   3  26
TORSDOF 4
ENDMDL
MODEL 2
REMARK VINA RESULT:    -7.449      5.039      8.460
REMARK INTER + INTRA:          -9.528
REMARK INTER:                  -8.957
REMARK INTRA:                  -0.571
REMARK UNBOUND:                -0.555
REMARK  4 active torsions:
REMARK  status: ('A' for Active; 'I' for Inactive)
REMARK    1  A    between atoms: C_2  and  O_3 
REMARK    2  A    between atoms: O_3  and  C_4 
REMARK       I    between atoms: N_11  and  C_12 
REMARK    3  A    between atoms: C_12  and  C_14 
REMARK    4  A    between atoms: C_16  and  N_17 
ROOT
HETATM    1  C   UNL     1       5.366   7.105  21.026  0.00  0.00     0.140 A 
HETATM    2  N   UNL     1       6.388   7.861  20.561  0.00  0.00    -0.212 NA
HETATM    3  C   UNL     1       6.364   8.153  19.264  0.00  0.00     0.200 A 
HETATM    4  N   UNL     1       5.493   7.671  18.383  0.00  0.00    -0.218 NA
HETATM    5  C   UNL     1       4.490   6.913  18.835  0.00  0.00     0.073 A 
HETATM    6  C   UNL     1       3.612   6.359  17.905  0.00  0.00     0.033 C 
HETATM    7  C   UNL     1       2.533   5.557  18.286  0.00  0.00     0.009 C 
HETATM    8  C   UNL     1       2.277   5.350  19.634  0.00  0.00    -0.061 C 
HETATM    9  C   UNL     1       1.180   4.446  20.108  0.00  0.00     0.048 C 
HETATM   10  C   UNL     1       3.137   5.928  20.573  0.00  0.00     0.023 C 
HETATM   11  C   UNL     1       4.311   6.642  20.191  0.00  0.00     0.028 A 
ENDROOT
BRANCH   1  12
HETATM   12  C   UNL     1       5.459   6.648  22.479  0.00  0.00     0.274 C 
HETATM   13  N   UNL     1       4.650   7.156  23.491  0.00  0.00    -0.338 N 
HETATM   14  C   UNL     1       4.856   6.654  24.855  0.00  0.00     0.165 A 
HETATM   15  C   UNL     1       3.551   8.123  23.424  0.00  0.00     0.165 A 
HETATM   16  C   UNL     1       3.788   7.320  25.656  0.00  0.00    -0.030 A 
HETATM   17  C   UNL     1       3.026   8.155  24.834  0.00  0.00    -0.032 A 
HETATM   18  C   UNL     1       3.498   7.168  27.007  0.00  0.00     0.046 A 
HETATM   19  C   UNL     1       1.942   8.845  25.357  0.00  0.00     0.012 A 
HETATM   20  C   UNL     1       1.631   8.679  26.720  0.00  0.00     0.037 A 
HETATM   21  C   UNL     1       2.412   7.858  27.551  0.00  0.00     0.069 A 
HETATM   22  O   UNL     1       6.306   5.810  22.798  0.00  0.00    -0.266 OA
BRANCH  21  23
HETATM   23  O   UNL     1       2.212   7.643  28.889  0.00  0.00    -0.352 OA
BRANCH  23  24
HETATM   24  C   UNL     1       2.345   8.763  29.766  0.00  0.00     0.171 C 
HETATM   25  C   UNL     1       3.826   9.014  30.000  0.00  0.00     0.034 C 
ENDBRANCH  23  24
ENDBRANCH  21  23
ENDBRANCH   1  12
BRANCH   3  26
HETATM   26  N   UNL     1       7.325   9.002  18.764  0.00  0.00    -0.271 NA
HETATM   27  H   UNL     1       7.096   9.966  18.937  0.00  0.00     0.127 HD
HETATM   28  H   UNL     1       8.246   8.680  19.042  0.00  0.00     0.127 HD
ENDBRANCH   3  26
TORSDOF 4
ENDMDL
MODEL 3
REMARK VINA RESULT:    -7.388      7.765      9.577
REMARK INTER + INTRA:          -9.455
REMARK INTER:                  -8.905
REMARK INTRA:                  -0.550
REMARK UNBOUND:                -0.555
REMARK  4 active torsions:
REMARK  status: ('A' for Active; 'I' for Inactive)
REMARK    1  A    between atoms: C_2  and  O_3 
REMARK    2  A    between atoms: O_3  and  C_4 
REMARK       I    between atoms: N_11  and  C_12 
REMARK    3  A    between atoms: C_12  and  C_14 
REMARK    4  A    between atoms: C_16  and  N_17 
ROOT
HETATM    1  C   UNL     1       4.465   7.651  19.224  0.00  0.00     0.140 A 
HETATM    2  N   UNL     1       5.533   8.330  18.746  0.00  0.00    -0.212 NA
HETATM    3  C   UNL     1       6.653   8.247  19.458  0.00  0.00     0.200 A 
HETATM    4  N   UNL     1       6.769   7.658  20.644  0.00  0.00    -0.218 NA
HETATM    5  C   UNL     1       5.713   6.997  21.127  0.00  0.00     0.073 A 
HETATM    6  C   UNL     1       5.815   6.429  22.395  0.00  0.00     0.033 C 
HETATM    7  C   UNL     1       4.763   5.718  22.980  0.00  0.00     0.009 C 
HETATM    8  C   UNL     1       3.597   5.507  22.259  0.00  0.00    -0.061 C 
HETATM    9  C   UNL     1       2.408   4.813  22.851  0.00  0.00     0.048 C 
HETATM   10  C   UNL     1       3.500   6.048  20.974  0.00  0.00     0.023 C 
HETATM   11  C   UNL     1       4.516   6.881  20.420  0.00  0.00     0.028 A 
ENDROOT
BRANCH   1  12
HETATM   12  C   UNL     1       3.141   7.853  18.492  0.00  0.00     0.274 C 
HETATM   13  N   UNL     1       2.552   6.873  17.700  0.00  0.00    -0.338 N 
HETATM   14  C   UNL     1       1.290   7.200  17.024  0.00  0.00     0.165 A 
HETATM   15  C   UNL     1       2.969   5.494  17.438  0.00  0.00     0.165 A 
HETATM   16  C   UNL     1       0.893   5.929  16.351  0.00  0.00    -0.030 A 
HETATM   17  C   UNL     1       1.850   4.940  16.598  0.00  0.00    -0.032 A 
HETATM   18  C   UNL     1      -0.248   5.665  15.603  0.00  0.00     0.046 A 
HETATM   19  C   UNL     1       1.666   3.656  16.107  0.00  0.00     0.012 A 
HETATM   20  C   UNL     1       0.502   3.378  15.366  0.00  0.00     0.037 A 
HETATM   21  C   UNL     1      -0.447   4.379  15.098  0.00  0.00     0.069 A 
HETATM   22  O   UNL     1       2.566   8.941  18.570  0.00  0.00    -0.266 OA
BRANCH  21  23
HETATM   23  O   UNL     1      -1.600   4.222  14.373  0.00  0.00    -0.352 OA
BRANCH  23  24
HETATM   24  C   UNL     1      -1.893   2.918  13.871  0.00  0.00     0.171 C 
HETATM   25  C   UNL     1      -3.403   2.734  13.874  0.00  0.00     0.034 C 
ENDBRANCH  23  24
ENDBRANCH  21  23
ENDBRANCH   1  12
BRANCH   3  26
HETATM   26  N   UNL     1       7.793   8.837  18.961  0.00  0.00    -0.271 NA
HETATM   27  H   UNL     1       7.577   9.592  18.332  0.00  0.00     0.127 HD
HETATM   28  H   UNL     1       8.440   9.028  19.719  0.00  0.00     0.127 HD
ENDBRANCH   3  26
TORSDOF 4
ENDMDL
MODEL 4
REMARK VINA RESULT:    -7.288      1.743      3.154
REMARK INTER + INTRA:          -9.334
REMARK INTER:                  -8.737
REMARK INTRA:                  -0.597
REMARK UNBOUND:                -0.555
REMARK  4 active torsions:
REMARK  status: ('A' for Active; 'I' for Inactive)
REMARK    1  A    between atoms: C_2  and  O_3 
REMARK    2  A    between atoms: O_3  and  C_4 
REMARK       I    between atoms: N_11  and  C_12 
REMARK    3  A    between atoms: C_12  and  C_14 
REMARK    4  A    between atoms: C_16  and  N_17 
ROOT
HETATM    1  C   UNL     1       2.110   7.046  26.582  0.00  0.00     0.140 A 
HETATM    2  N   UNL     1       3.059   6.598  25.725  0.00  0.00    -0.212 NA
HETATM    3  C   UNL     1       4.262   6.369  26.244  0.00  0.00     0.200 A 
HETATM    4  N   UNL     1       4.629   6.651  27.489  0.00  0.00    -0.218 NA
HETATM    5  C   UNL     1       3.700   7.106  28.335  0.00  0.00     0.073 A 
HETATM    6  C   UNL     1       4.098   7.458  29.623  0.00  0.00     0.033 C 
HETATM    7  C   UNL     1       3.196   7.940  30.575  0.00  0.00     0.009 C 
HETATM    8  C   UNL     1       1.846   8.013  30.264  0.00  0.00    -0.061 C 
HETATM    9  C   UNL     1       0.837   8.583  31.213  0.00  0.00     0.048 C 
HETATM   10  C   UNL     1       1.436   7.632  28.982  0.00  0.00     0.023 C 
HETATM   11  C   UNL     1       2.364   7.261  27.965  0.00  0.00     0.028 A 
ENDROOT
BRANCH   1  12
HETATM   12  C   UNL     1       0.770   7.445  25.971  0.00  0.00     0.274 C 
HETATM   13  N   UNL     1       0.488   8.734  25.531  0.00  0.00    -0.338 N 
HETATM   14  C   UNL     1      -0.850   8.999  24.986  0.00  0.00     0.165 A 
HETATM   15  C   UNL     1       1.344   9.922  25.478  0.00  0.00     0.165 A 
HETATM   16  C   UNL     1      -0.787  10.419  24.533  0.00  0.00    -0.030 A 
HETATM   17  C   UNL     1       0.477  10.949  24.801  0.00  0.00    -0.032 A 
HETATM   18  C   UNL     1      -1.771  11.169  23.900  0.00  0.00     0.046 A 
HETATM   19  C   UNL     1       0.782  12.248  24.420  0.00  0.00     0.012 A 
HETATM   20  C   UNL     1      -0.204  13.006  23.761  0.00  0.00     0.037 A 
HETATM   21  C   UNL     1      -1.484  12.480  23.514  0.00  0.00     0.069 A 
HETATM   22  O   UNL     1      -0.129   6.605  25.881  0.00  0.00    -0.266 OA
BRANCH  21  23
HETATM   23  O   UNL     1      -2.520  13.135  22.902  0.00  0.00    -0.352 OA
BRANCH  23  24
HETATM   24  C   UNL     1      -2.828  12.772  21.555  0.00  0.00     0.171 C 
HETATM   25  C   UNL     1      -1.636  13.126  20.679  0.00  0.00     0.034 C 
ENDBRANCH  23  24
ENDBRANCH  21  23
ENDBRANCH   1  12
BRANCH   3  26
HETATM   26  N   UNL     1       5.230   5.818  25.436  0.00  0.00    -0.271 NA
HETATM   27  H   UNL     1       5.470   4.885  25.726  0.00  0.00     0.127 HD
HETATM   28  H   UNL     1       4.986   5.959  24.461  0.00  0.00     0.127 HD
ENDBRANCH   3  26
TORSDOF 4
ENDMDL
MODEL 5
REMARK VINA RESULT:    -7.262      4.130      5.782
REMARK INTER + INTRA:          -9.303
REMARK INTER:                  -8.700
REMARK INTRA:                  -0.604
REMARK UNBOUND:                -0.555
REMARK  4 active torsions:
REMARK  status: ('A' for Active; 'I' for Inactive)
REMARK    1  A    between atoms: C_2  and  O_3 
REMARK    2  A    between atoms: O_3  and  C_4 
REMARK       I    between atoms: N_11  and  C_12 
REMARK    3  A    between atoms: C_12  and  C_14 
REMARK    4  A    between atoms: C_16  and  N_17 
ROOT
HETATM    1  C   UNL     1       0.680   8.237  27.530  0.00  0.00     0.140 A 
HETATM    2  N   UNL     1      -0.492   8.885  27.332  0.00  0.00    -0.212 NA
HETATM    3  C   UNL     1      -1.005   9.512  28.386  0.00  0.00     0.200 A 
HETATM    4  N   UNL     1      -0.526   9.453  29.624  0.00  0.00    -0.218 NA
HETATM    5  C   UNL     1       0.622   8.802  29.827  0.00  0.00     0.073 A 
HETATM    6  C   UNL     1       1.094   8.690  31.134  0.00  0.00     0.033 C 
HETATM    7  C   UNL     1       2.287   8.030  31.441  0.00  0.00     0.009 C 
HETATM    8  C   UNL     1       3.072   7.523  30.416  0.00  0.00    -0.061 C 
HETATM    9  C   UNL     1       4.325   6.746  30.680  0.00  0.00     0.048 C 
HETATM   10  C   UNL     1       2.619   7.660  29.100  0.00  0.00     0.023 C 
HETATM   11  C   UNL     1       1.344   8.217  28.788  0.00  0.00     0.028 A 
ENDROOT
BRANCH   1  12
HETATM   12  C   UNL     1       1.204   7.400  26.366  0.00  0.00     0.274 C 
HETATM   13  N   UNL     1       1.922   7.938  25.303  0.00  0.00    -0.338 N 
HETATM   14  C   UNL     1       2.347   7.031  24.230  0.00  0.00     0.165 A 
HETATM   15  C   UNL     1       2.382   9.309  25.074  0.00  0.00     0.165 A 
HETATM   16  C   UNL     1       3.154   7.894  23.318  0.00  0.00    -0.030 A 
HETATM   17  C   UNL     1       3.188   9.203  23.807  0.00  0.00    -0.032 A 
HETATM   18  C   UNL     1       3.831   7.533  22.160  0.00  0.00     0.046 A 
HETATM   19  C   UNL     1       3.923  10.174  23.144  0.00  0.00     0.012 A 
HETATM   20  C   UNL     1       4.628   9.810  21.981  0.00  0.00     0.037 A 
HETATM   21  C   UNL     1       4.573   8.500  21.477  0.00  0.00     0.069 A 
HETATM   22  O   UNL     1       0.964   6.190  26.334  0.00  0.00    -0.266 OA
BRANCH  21  23
HETATM   23  O   UNL     1       5.201   8.045  20.347  0.00  0.00    -0.352 OA
BRANCH  23  24
HETATM   24  C   UNL     1       6.612   7.834  20.415  0.00  0.00     0.171 C 
HETATM   25  C   UNL     1       7.291   8.849  19.507  0.00  0.00     0.034 C 
ENDBRANCH  23  24
ENDBRANCH  21  23
ENDBRANCH   1  12
BRANCH   3  26
HETATM   26  N   UNL     1      -2.141  10.269  28.211  0.00  0.00    -0.271 NA
HETATM   27  H   UNL     1      -2.846  10.046  28.895  0.00  0.00     0.127 HD
HETATM   28  H   UNL     1      -1.890  11.245  28.097  0.00  0.00     0.127 HD
ENDBRANCH   3  26
TORSDOF 4
ENDMDL
MODEL 6
REMARK VINA RESULT:    -7.092      3.408      5.839
REMARK INTER + INTRA:          -9.097
REMARK INTER:                  -8.826
REMARK INTRA:                  -0.272
REMARK UNBOUND:                -0.555
REMARK  4 active torsions:
REMARK  status: ('A' for Active; 'I' for Inactive)
REMARK    1  A    between atoms: C_2  and  O_3 
REMARK    2  A    between atoms: O_3  and  C_4 
REMARK       I    between atoms: N_11  and  C_12 
REMARK    3  A    between atoms: C_12  and  C_14 
REMARK    4  A    between atoms: C_16  and  N_17 
ROOT
HETATM    1  C   UNL     1       1.049   7.384  27.563  0.00  0.00     0.140 A 
HETATM    2  N   UNL     1       1.613   6.941  28.712  0.00  0.00    -0.212 NA
HETATM    3  C   UNL     1       1.232   7.552  29.830  0.00  0.00     0.200 A 
HETATM    4  N   UNL     1       0.446   8.621  29.893  0.00  0.00    -0.218 NA
HETATM    5  C   UNL     1      -0.102   9.071  28.760  0.00  0.00     0.073 A 
HETATM    6  C   UNL     1      -0.879  10.227  28.817  0.00  0.00     0.033 C 
HETATM    7  C   UNL     1      -1.493  10.767  27.685  0.00  0.00     0.009 C 
HETATM    8  C   UNL     1      -1.390  10.107  26.469  0.00  0.00    -0.061 C 
HETATM    9  C   UNL     1      -1.966  10.668  25.205  0.00  0.00     0.048 C 
HETATM   10  C   UNL     1      -0.637   8.930  26.412  0.00  0.00     0.023 C 
HETATM   11  C   UNL     1       0.097   8.441  27.532  0.00  0.00     0.028 A 
ENDROOT
BRANCH   1  12
HETATM   12  C   UNL     1       1.583   6.787  26.264  0.00  0.00     0.274 C 
HETATM   13  N   UNL     1       2.194   7.545  25.271  0.00  0.00    -0.338 N 
HETATM   14  C   UNL     1       2.641   6.856  24.055  0.00  0.00     0.165 A 
HETATM   15  C   UNL     1       2.518   8.974  25.241  0.00  0.00     0.165 A 
HETATM   16  C   UNL     1       3.319   7.921  23.258  0.00  0.00    -0.030 A 
HETATM   17  C   UNL     1       3.263   9.137  23.943  0.00  0.00    -0.032 A 
HETATM   18  C   UNL     1       3.965   7.805  22.033  0.00  0.00     0.046 A 
HETATM   19  C   UNL     1       3.874  10.264  23.411  0.00  0.00     0.012 A 
HETATM   20  C   UNL     1       4.546  10.149  22.180  0.00  0.00     0.037 A 
HETATM   21  C   UNL     1       4.581   8.930  21.481  0.00  0.00     0.069 A 
HETATM   22  O   UNL     1       1.450   5.579  26.053  0.00  0.00    -0.266 OA
BRANCH  21  23
HETATM   23  O   UNL     1       5.187   8.714  20.271  0.00  0.00    -0.352 OA
BRANCH  23  24
HETATM   24  C   UNL     1       6.371   7.915  20.258  0.00  0.00     0.171 C 
HETATM   25  C   UNL     1       7.529   8.784  19.792  0.00  0.00     0.034 C 
ENDBRANCH  23  24
ENDBRANCH  21  23
ENDBRANCH   1  12
BRANCH   3  26
HETATM   26  N   UNL     1       1.700   7.072  31.032  0.00  0.00    -0.271 NA
HETATM   27  H   UNL     1       1.024   6.479  31.484  0.00  0.00     0.127 HD
HETATM   28  H   UNL     1       2.640   6.708  30.915  0.00  0.00     0.127 HD
ENDBRANCH   3  26
TORSDOF 4
ENDMDL
MODEL 7
REMARK VINA RESULT:    -7.022      7.814      9.703
REMARK INTER + INTRA:          -9.013
REMARK INTER:                  -8.459
REMARK INTRA:                  -0.555
REMARK UNBOUND:                -0.555
REMARK  4 active torsions:
REMARK  status: ('A' for Active; 'I' for Inactive)
REMARK    1  A    between atoms: C_2  and  O_3 
REMARK    2  A    between atoms: O_3  and  C_4 
REMARK       I    between atoms: N_11  and  C_12 
REMARK    3  A    between atoms: C_12  and  C_14 
REMARK    4  A    between atoms: C_16  and  N_17 
ROOT
HETATM    1  C   UNL     1       4.853   6.345  19.622  0.00  0.00     0.140 A 
HETATM    2  N   UNL     1       5.704   7.002  18.799  0.00  0.00    -0.212 NA
HETATM    3  C   UNL     1       6.183   8.159  19.247  0.00  0.00     0.200 A 
HETATM    4  N   UNL     1       5.806   8.766  20.368  0.00  0.00    -0.218 NA
HETATM    5  C   UNL     1       4.956   8.127  21.176  0.00  0.00     0.073 A 
HETATM    6  C   UNL     1       4.515   8.787  22.322  0.00  0.00     0.033 C 
HETATM    7  C   UNL     1       3.629   8.197  23.227  0.00  0.00     0.009 C 
HETATM    8  C   UNL     1       3.217   6.887  23.026  0.00  0.00    -0.061 C 
HETATM    9  C   UNL     1       2.216   6.219  23.919  0.00  0.00     0.048 C 
HETATM   10  C   UNL     1       3.680   6.209  21.894  0.00  0.00     0.023 C 
HETATM   11  C   UNL     1       4.482   6.845  20.901  0.00  0.00     0.028 A 
ENDROOT
BRANCH   1  12
HETATM   12  C   UNL     1       4.191   5.090  19.060  0.00  0.00     0.274 C 
HETATM   13  N   UNL     1       3.123   5.126  18.170  0.00  0.00    -0.338 N 
HETATM   14  C   UNL     1       2.555   3.848  17.723  0.00  0.00     0.165 A 
HETATM   15  C   UNL     1       2.457   6.270  17.541  0.00  0.00     0.165 A 
HETATM   16  C   UNL     1       1.513   4.237  16.728  0.00  0.00    -0.030 A 
HETATM   17  C   UNL     1       1.463   5.629  16.609  0.00  0.00    -0.032 A 
HETATM   18  C   UNL     1       0.697   3.413  15.963  0.00  0.00     0.046 A 
HETATM   19  C   UNL     1       0.596   6.219  15.701  0.00  0.00     0.012 A 
HETATM   20  C   UNL     1      -0.219   5.389  14.910  0.00  0.00     0.037 A 
HETATM   21  C   UNL     1      -0.186   3.991  15.047  0.00  0.00     0.069 A 
HETATM   22  O   UNL     1       4.589   3.981  19.423  0.00  0.00    -0.266 OA
BRANCH  21  23
HETATM   23  O   UNL     1      -0.948   3.094  14.345  0.00  0.00    -0.352 OA
BRANCH  23  24
HETATM   24  C   UNL     1      -1.827   2.249  15.088  0.00  0.00     0.171 C 
HETATM   25  C   UNL     1      -3.115   2.085  14.295  0.00  0.00     0.034 C 
ENDBRANCH  23  24
ENDBRANCH  21  23
ENDBRANCH   1  12
BRANCH   3  26
HETATM   26  N   UNL     1       7.128   8.815  18.492  0.00  0.00    -0.271 NA
HETATM   27  H   UNL     1       7.810   9.278  19.069  0.00  0.00     0.127 HD
HETATM   28  H   UNL     1       7.472   8.201  17.761  0.00  0.00     0.127 HD
ENDBRANCH   3  26
TORSDOF 4
ENDMDL
MODEL 8
REMARK VINA RESULT:    -7.005      3.579      6.600
REMARK INTER + INTRA:          -8.993
REMARK INTER:                  -8.391
REMARK INTRA:                  -0.602
REMARK UNBOUND:                -0.555
REMARK  4 active torsions:
REMARK  status: ('A' for Active; 'I' for Inactive)
REMARK    1  A    between atoms: C_2  and  O_3 
REMARK    2  A    between atoms: O_3  and  C_4 
REMARK       I    between atoms: N_11  and  C_12 
REMARK    3  A    between atoms: C_12  and  C_14 
REMARK    4  A    between atoms: C_16  and  N_17 
ROOT
HETATM    1  C   UNL     1       1.863   9.170  26.240  0.00  0.00     0.140 A 
HETATM    2  N   UNL     1       2.531   8.646  27.296  0.00  0.00    -0.212 NA
HETATM    3  C   UNL     1       1.834   8.495  28.418  0.00  0.00     0.200 A 
HETATM    4  N   UNL     1       0.591   8.921  28.615  0.00  0.00    -0.218 NA
HETATM    5  C   UNL     1      -0.067   9.452  27.581  0.00  0.00     0.073 A 
HETATM    6  C   UNL     1      -1.349   9.952  27.802  0.00  0.00     0.033 C 
HETATM    7  C   UNL     1      -2.113  10.522  26.779  0.00  0.00     0.009 C 
HETATM    8  C   UNL     1      -1.618  10.537  25.483  0.00  0.00    -0.061 C 
HETATM    9  C   UNL     1      -2.355  11.193  24.355  0.00  0.00     0.048 C 
HETATM   10  C   UNL     1      -0.344  10.009  25.250  0.00  0.00     0.023 C 
HETATM   11  C   UNL     1       0.492   9.543  26.306  0.00  0.00     0.028 A 
ENDROOT
BRANCH   1  12
HETATM   12  C   UNL     1       2.688   9.477  24.994  0.00  0.00     0.274 C 
HETATM   13  N   UNL     1       3.060   8.507  24.069  0.00  0.00    -0.338 N 
HETATM   14  C   UNL     1       3.879   8.924  22.924  0.00  0.00     0.165 A 
HETATM   15  C   UNL     1       2.733   7.080  24.015  0.00  0.00     0.165 A 
HETATM   16  C   UNL     1       4.017   7.687  22.100  0.00  0.00    -0.030 A 
HETATM   17  C   UNL     1       3.347   6.627  22.717  0.00  0.00    -0.032 A 
HETATM   18  C   UNL     1       4.661   7.528  20.880  0.00  0.00     0.046 A 
HETATM   19  C   UNL     1       3.300   5.383  22.105  0.00  0.00     0.012 A 
HETATM   20  C   UNL     1       3.935   5.221  20.859  0.00  0.00     0.037 A 
HETATM   21  C   UNL     1       4.628   6.281  20.251  0.00  0.00     0.069 A 
HETATM   22  O   UNL     1       3.078  10.630  24.793  0.00  0.00    -0.266 OA
BRANCH  21  23
HETATM   23  O   UNL     1       5.295   6.227  19.055  0.00  0.00    -0.352 OA
BRANCH  23  24
HETATM   24  C   UNL     1       4.587   5.712  17.927  0.00  0.00     0.171 C 
HETATM   25  C   UNL     1       3.457   6.674  17.591  0.00  0.00     0.034 C 
ENDBRANCH  23  24
ENDBRANCH  21  23
ENDBRANCH   1  12
BRANCH   3  26
HETATM   26  N   UNL     1       2.438   7.875  29.487  0.00  0.00    -0.271 NA
HETATM   27  H   UNL     1       2.723   8.536  30.190  0.00  0.00     0.127 HD
HETATM   28  H   UNL     1       1.879   7.083  29.787  0.00  0.00     0.127 HD
ENDBRANCH   3  26
TORSDOF 4
ENDMDL
MODEL 9
REMARK VINA RESULT:    -6.993      6.628      8.459
REMARK INTER + INTRA:          -8.979
REMARK INTER:                  -8.401
REMARK INTRA:                  -0.577
REMARK UNBOUND:                -0.555
REMARK  4 active torsions:
REMARK  status: ('A' for Active; 'I' for Inactive)
REMARK    1  A    between atoms: C_2  and  O_3 
REMARK    2  A    between atoms: O_3  and  C_4 
REMARK       I    between atoms: N_11  and  C_12 
REMARK    3  A    between atoms: C_12  and  C_14 
REMARK    4  A    between atoms: C_16  and  N_17 
ROOT
HETATM    1  C   UNL     1       4.381   8.163  20.949  0.00  0.00     0.140 A 
HETATM    2  N   UNL     1       4.148   9.447  21.312  0.00  0.00    -0.212 NA
HETATM    3  C   UNL     1       4.028   9.679  22.616  0.00  0.00     0.200 A 
HETATM    4  N   UNL     1       4.002   8.748  23.564  0.00  0.00    -0.218 NA
HETATM    5  C   UNL     1       4.218   7.479  23.209  0.00  0.00     0.073 A 
HETATM    6  C   UNL     1       4.132   6.496  24.194  0.00  0.00     0.033 C 
HETATM    7  C   UNL     1       4.345   5.143  23.917  0.00  0.00     0.009 C 
HETATM    8  C   UNL     1       4.720   4.758  22.637  0.00  0.00    -0.061 C 
HETATM    9  C   UNL     1       4.896   3.320  22.257  0.00  0.00     0.048 C 
HETATM   10  C   UNL     1       4.837   5.743  21.652  0.00  0.00     0.023 C 
HETATM   11  C   UNL     1       4.499   7.107  21.895  0.00  0.00     0.028 A 
ENDROOT
BRANCH   1  12
HETATM   12  C   UNL     1       4.380   7.864  19.453  0.00  0.00     0.274 C 
HETATM   13  N   UNL     1       3.372   7.144  18.821  0.00  0.00    -0.338 N 
HETATM   14  C   UNL     1       3.500   6.899  17.379  0.00  0.00     0.165 A 
HETATM   15  C   UNL     1       2.127   6.592  19.360  0.00  0.00     0.165 A 
HETATM   16  C   UNL     1       2.235   6.198  17.012  0.00  0.00    -0.030 A 
HETATM   17  C   UNL     1       1.436   6.031  18.147  0.00  0.00    -0.032 A 
HETATM   18  C   UNL     1       1.815   5.770  15.758  0.00  0.00     0.046 A 
HETATM   19  C   UNL     1       0.184   5.442  18.036  0.00  0.00     0.012 A 
HETATM   20  C   UNL     1      -0.254   5.025  16.765  0.00  0.00     0.037 A 
HETATM   21  C   UNL     1       0.560   5.171  15.629  0.00  0.00     0.069 A 
HETATM   22  O   UNL     1       5.324   8.247  18.758  0.00  0.00    -0.266 OA
BRANCH  21  23
HETATM   23  O   UNL     1       0.241   4.783  14.354  0.00  0.00    -0.352 OA
BRANCH  23  24
HETATM   24  C   UNL     1      -0.073   3.407  14.141  0.00  0.00     0.171 C 
HETATM   25  C   UNL     1       1.225   2.653  13.895  0.00  0.00     0.034 C 
ENDBRANCH  23  24
ENDBRANCH  21  23
ENDBRANCH   1  12
BRANCH   3  26
HETATM   26  N   UNL     1       3.891  10.981  23.041  0.00  0.00    -0.271 NA
HETATM   27  H   UNL     1       2.988  11.145  23.452  0.00  0.00     0.127 HD
HETATM   28  H   UNL     1       4.708  11.255  23.577  0.00  0.00     0.127 HD
ENDBRANCH   3  26
TORSDOF 4
ENDMDL
