REMARK  4 active torsions:
REMARK  status: ('A' for Active; 'I' for Inactive)
REMARK    1  A    between atoms: C_2  and  O_3 
REMARK    2  A    between atoms: O_3  and  C_4 
REMARK       I    between atoms: N_11  and  C_12 
REMARK    3  A    between atoms: C_12  and  C_14 
REMARK    4  A    between atoms: C_16  and  N_17 
ROOT
HETATM    1  C   UNL     1      10.822   3.942   2.699  0.00  0.00     0.140 A 
HETATM    2  N   UNL     1      11.313   2.680   2.695  0.00  0.00    -0.212 NA
HETATM    3  C   UNL     1      12.631   2.559   2.826  0.00  0.00     0.200 A 
HETATM    4  N   UNL     1      13.498   3.566   2.841  0.00  0.00    -0.218 NA
HETATM    5  C   UNL     1      13.019   4.813   2.831  0.00  0.00     0.073 A 
HETATM    6  C   UNL     1      13.929   5.868   2.787  0.00  0.00     0.033 C 
HETATM    7  C   UNL     1      13.520   7.204   2.777  0.00  0.00     0.009 C 
HETATM    8  C   UNL     1      12.170   7.507   2.880  0.00  0.00    -0.061 C 
HETATM    9  C   UNL     1      11.660   8.914   2.806  0.00  0.00     0.048 C 
HETATM   10  C   UNL     1      11.254   6.453   2.955  0.00  0.00     0.023 C 
HETATM   11  C   UNL     1      11.652   5.089   2.838  0.00  0.00     0.028 A 
ENDROOT
BRANCH   1  12
HETATM   12  C   UNL     1       9.332   4.097   2.409  0.00  0.00     0.274 C 
HETATM   13  N   UNL     1       8.494   3.022   2.131  0.00  0.00    -0.338 N 
HETATM   14  C   UNL     1       7.083   3.305   1.841  0.00  0.00     0.165 A 
HETATM   15  C   UNL     1       8.778   1.585   2.112  0.00  0.00     0.165 A 
HETATM   16  C   UNL     1       6.463   1.957   1.683  0.00  0.00    -0.030 A 
HETATM   17  C   UNL     1       7.432   0.964   1.852  0.00  0.00    -0.032 A 
HETATM   18  C   UNL     1       5.132   1.640   1.440  0.00  0.00     0.046 A 
HETATM   19  C   UNL     1       7.073  -0.375   1.795  0.00  0.00     0.012 A 
HETATM   20  C   UNL     1       5.723  -0.702   1.569  0.00  0.00     0.037 A 
HETATM   21  C   UNL     1       4.754   0.297   1.375  0.00  0.00     0.069 A 
HETATM   22  O   UNL     1       8.833   5.225   2.387  0.00  0.00    -0.266 OA
BRANCH  21  23
HETATM   23  O   UNL     1       3.422   0.090   1.129  0.00  0.00    -0.352 OA
BRANCH  23  24
HETATM   24  C   UNL     1       2.996  -1.250   0.879  0.00  0.00     0.171 C 
HETATM   25  C   UNL     1       1.588  -1.205   0.305  0.00  0.00     0.034 C 
ENDBRANCH  23  24
ENDBRANCH  21  23
ENDBRANCH   1  12
BRANCH   3  26
HETATM   26  N   UNL     1      13.167   1.296   2.929  0.00  0.00    -0.271 NA
HETATM   27  H   UNL     1      12.605   0.613   2.449  0.00  0.00     0.127 HD
HETATM   28  H   UNL     1      14.158   1.324   2.713  0.00  0.00     0.127 HD
ENDBRANCH   3  26
TORSDOF 4
