MODEL 1
REMARK VINA RESULT:    -7.687      0.000      0.000
REMARK INTER + INTRA:         -12.322
REMARK INTER:                 -10.798
REMARK INTRA:                  -1.524
REMARK UNBOUND:                -1.938
REMARK  7 active torsions:
REMARK  status: ('A' for Active; 'I' for Inactive)
REMARK    1  A    between atoms: C_2  and  N_4 
REMARK    2  A    between atoms: N_4  and  S_6 
REMARK    3  A    between atoms: S_6  and  C_9 
REMARK    4  A    between atoms: C_11  and  C_12 
REMARK    5  A    between atoms: N_17  and  C_18 
REMARK    6  A    between atoms: C_25  and  O_26 
REMARK    7  A    between atoms: C_28  and  O_29 
ROOT
HETATM    1  C   UNL     1       4.567   7.144  20.840  0.00  0.00     0.113 A 
HETATM    2  C   UNL     1       3.560   7.030  21.820  0.00  0.00     0.042 A 
HETATM    3  C   UNL     1       3.836   6.629  23.142  0.00  0.00     0.023 A 
HETATM    4  C   UNL     1       5.163   6.282  23.433  0.00  0.00     0.078 A 
HETATM    5  C   UNL     1       6.166   6.368  22.462  0.00  0.00     0.075 A 
HETATM    6  C   UNL     1       5.876   6.813  21.169  0.00  0.00     0.091 A 
ENDROOT
BRANCH   3   7
HETATM    7  C   UNL     1       2.666   6.610  24.115  0.00  0.00     0.277 C 
HETATM    8  N   UNL     1       2.671   5.388  24.948  0.00  0.00    -0.156 NA
HETATM    9  N   UNL     1       2.478   5.688  26.159  0.00  0.00    -0.093 NA
HETATM   10  C   UNL     1       2.403   7.062  26.292  0.00  0.00     0.369 C 
HETATM   11  O   UNL     1       2.157   7.647  27.337  0.00  0.00    -0.243 OA
HETATM   12  N   UNL     1       2.644   7.659  25.071  0.00  0.00    -0.264 N 
BRANCH  12  13
HETATM   13  C   UNL     1       2.545   9.039  24.796  0.00  0.00     0.080 A 
HETATM   14  C   UNL     1       3.660   9.706  24.264  0.00  0.00     0.033 A 
HETATM   15  C   UNL     1       3.559  11.038  23.859  0.00  0.00     0.002 A 
HETATM   16  C   UNL     1       2.366  11.736  24.032  0.00  0.00     0.003 A 
HETATM   17  C   UNL     1       1.265  11.096  24.598  0.00  0.00     0.044 A 
HETATM   18  C   UNL     1       1.354   9.753  24.950  0.00  0.00     0.143 A 
HETATM   19  F   UNL     1       0.278   9.166  25.497  0.00  0.00    -0.204 F 
ENDBRANCH  12  13
ENDBRANCH   3   7
BRANCH   4  20
HETATM   20  O   UNL     1       5.594   5.853  24.655  0.00  0.00    -0.360 OA
HETATM   21  H   UNL     1       5.997   4.975  24.575  0.00  0.00     0.217 HD
ENDBRANCH   4  20
BRANCH   1  22
HETATM   22  S   UNL     1       4.128   7.970  19.316  0.00  0.00     0.263 S 
HETATM   23  O   UNL     1       5.321   8.202  18.539  0.00  0.00    -0.200 OA
HETATM   24  O   UNL     1       3.331   9.120  19.714  0.00  0.00    -0.200 OA
BRANCH  22  25
HETATM   25  N   UNL     1       3.056   6.904  18.514  0.00  0.00    -0.307 N 
HETATM   26  C   UNL     1       3.726   5.966  17.575  0.00  0.00     0.163 C 
BRANCH  25  27
HETATM   27  C   UNL     1       1.708   7.356  18.043  0.00  0.00     0.087 C 
HETATM   28  C   UNL     1       1.735   7.570  16.516  0.00  0.00     0.032 C 
HETATM   29  C   UNL     1       0.589   6.346  18.308  0.00  0.00     0.032 C 
ENDBRANCH  25  27
ENDBRANCH  22  25
ENDBRANCH   1  22
BRANCH   6  30
HETATM   30  O   UNL     1       6.882   6.874  20.258  0.00  0.00    -0.359 OA
HETATM   31  H   UNL     1       6.557   6.565  19.391  0.00  0.00     0.217 HD
ENDBRANCH   6  30
TORSDOF 7
ENDMDL
MODEL 2
REMARK VINA RESULT:    -7.677      4.445      6.601
REMARK INTER + INTRA:         -12.308
REMARK INTER:                  -9.882
REMARK INTRA:                  -2.426
REMARK UNBOUND:                -1.938
REMARK  7 active torsions:
REMARK  status: ('A' for Active; 'I' for Inactive)
REMARK    1  A    between atoms: C_2  and  N_4 
REMARK    2  A    between atoms: N_4  and  S_6 
REMARK    3  A    between atoms: S_6  and  C_9 
REMARK    4  A    between atoms: C_11  and  C_12 
REMARK    5  A    between atoms: N_17  and  C_18 
REMARK    6  A    between atoms: C_25  and  O_26 
REMARK    7  A    between atoms: C_28  and  O_29 
ROOT
HETATM    1  C   UNL     1       1.725   5.780  17.119  0.00  0.00     0.113 A 
HETATM    2  C   UNL     1       3.082   5.742  17.500  0.00  0.00     0.042 A 
HETATM    3  C   UNL     1       3.699   6.799  18.197  0.00  0.00     0.023 A 
HETATM    4  C   UNL     1       2.915   7.935  18.445  0.00  0.00     0.078 A 
HETATM    5  C   UNL     1       1.574   7.993  18.050  0.00  0.00     0.075 A 
HETATM    6  C   UNL     1       0.971   6.913  17.400  0.00  0.00     0.091 A 
ENDROOT
BRANCH   3   7
HETATM    7  C   UNL     1       5.152   6.602  18.604  0.00  0.00     0.277 C 
HETATM    8  N   UNL     1       5.906   7.873  18.560  0.00  0.00    -0.156 NA
HETATM    9  N   UNL     1       6.593   8.006  19.610  0.00  0.00    -0.093 NA
HETATM   10  C   UNL     1       6.341   6.951  20.468  0.00  0.00     0.369 C 
HETATM   11  O   UNL     1       6.908   6.772  21.537  0.00  0.00    -0.243 OA
HETATM   12  N   UNL     1       5.362   6.140  19.929  0.00  0.00    -0.264 N 
BRANCH  12  13
HETATM   13  C   UNL     1       4.922   4.913  20.467  0.00  0.00     0.080 A 
HETATM   14  C   UNL     1       5.130   3.737  19.729  0.00  0.00     0.033 A 
HETATM   15  C   UNL     1       4.825   2.493  20.283  0.00  0.00     0.002 A 
HETATM   16  C   UNL     1       4.258   2.409  21.553  0.00  0.00     0.003 A 
HETATM   17  C   UNL     1       4.008   3.573  22.277  0.00  0.00     0.044 A 
HETATM   18  C   UNL     1       4.363   4.807  21.743  0.00  0.00     0.143 A 
HETATM   19  F   UNL     1       4.106   5.910  22.464  0.00  0.00    -0.204 F 
ENDBRANCH  12  13
ENDBRANCH   3   7
BRANCH   4  20
HETATM   20  O   UNL     1       3.364   9.053  19.087  0.00  0.00    -0.360 OA
HETATM   21  H   UNL     1       2.777   9.800  18.899  0.00  0.00     0.217 HD
ENDBRANCH   4  20
BRANCH   1  22
HETATM   22  S   UNL     1       1.001   4.250  16.541  0.00  0.00     0.263 S 
HETATM   23  O   UNL     1       1.427   4.004  15.184  0.00  0.00    -0.200 OA
HETATM   24  O   UNL     1      -0.424   4.371  16.805  0.00  0.00    -0.200 OA
BRANCH  22  25
HETATM   25  N   UNL     1       1.581   3.042  17.606  0.00  0.00    -0.307 N 
HETATM   26  C   UNL     1       2.157   1.855  16.921  0.00  0.00     0.163 C 
BRANCH  25  27
HETATM   27  C   UNL     1       0.858   2.705  18.874  0.00  0.00     0.087 C 
HETATM   28  C   UNL     1       1.361   1.351  19.414  0.00  0.00     0.032 C 
HETATM   29  C   UNL     1       1.080   3.717  20.001  0.00  0.00     0.032 C 
ENDBRANCH  25  27
ENDBRANCH  22  25
ENDBRANCH   1  22
BRANCH   6  30
HETATM   30  O   UNL     1      -0.332   7.017  17.030  0.00  0.00    -0.359 OA
HETATM   31  H   UNL     1      -0.712   6.125  16.918  0.00  0.00     0.217 HD
ENDBRANCH   6  30
TORSDOF 7
ENDMDL
MODEL 3
REMARK VINA RESULT:    -7.625      2.720      6.680
REMARK INTER + INTRA:         -12.238
REMARK INTER:                 -10.083
REMARK INTRA:                  -2.154
REMARK UNBOUND:                -1.938
REMARK  7 active torsions:
REMARK  status: ('A' for Active; 'I' for Inactive)
REMARK    1  A    between atoms: C_2  and  N_4 
REMARK    2  A    between atoms: N_4  and  S_6 
REMARK    3  A    between atoms: S_6  and  C_9 
REMARK    4  A    between atoms: C_11  and  C_12 
REMARK    5  A    between atoms: N_17  and  C_18 
REMARK    6  A    between atoms: C_25  and  O_26 
REMARK    7  A    between atoms: C_28  and  O_29 
ROOT
HETATM    1  C   UNL     1       3.637   8.056  24.190  0.00  0.00     0.113 A 
HETATM    2  C   UNL     1       3.670   8.284  22.799  0.00  0.00     0.042 A 
HETATM    3  C   UNL     1       4.628   7.682  21.960  0.00  0.00     0.023 A 
HETATM    4  C   UNL     1       5.601   6.886  22.580  0.00  0.00     0.078 A 
HETATM    5  C   UNL     1       5.592   6.672  23.963  0.00  0.00     0.075 A 
HETATM    6  C   UNL     1       4.603   7.243  24.770  0.00  0.00     0.091 A 
ENDROOT
BRANCH   3   7
HETATM    7  C   UNL     1       4.511   7.962  20.469  0.00  0.00     0.277 C 
HETATM    8  N   UNL     1       5.802   8.400  19.895  0.00  0.00    -0.156 NA
HETATM    9  N   UNL     1       6.032   7.776  18.822  0.00  0.00    -0.093 NA
HETATM   10  C   UNL     1       5.031   6.849  18.598  0.00  0.00     0.369 C 
HETATM   11  O   UNL     1       4.948   6.142  17.604  0.00  0.00    -0.243 OA
HETATM   12  N   UNL     1       4.151   6.852  19.661  0.00  0.00    -0.264 N 
BRANCH  12  13
HETATM   13  C   UNL     1       2.949   6.118  19.737  0.00  0.00     0.080 A 
HETATM   14  C   UNL     1       1.853   6.531  18.962  0.00  0.00     0.033 A 
HETATM   15  C   UNL     1       0.693   5.757  18.914  0.00  0.00     0.002 A 
HETATM   16  C   UNL     1       0.589   4.597  19.678  0.00  0.00     0.003 A 
HETATM   17  C   UNL     1       1.655   4.201  20.483  0.00  0.00     0.044 A 
HETATM   18  C   UNL     1       2.830   4.945  20.487  0.00  0.00     0.143 A 
HETATM   19  F   UNL     1       3.837   4.541  21.276  0.00  0.00    -0.204 F 
ENDBRANCH  12  13
ENDBRANCH   3   7
BRANCH   4  20
HETATM   20  O   UNL     1       6.611   6.250  21.917  0.00  0.00    -0.360 OA
HETATM   21  H   UNL     1       7.454   6.690  22.099  0.00  0.00     0.217 HD
ENDBRANCH   4  20
BRANCH   1  22
HETATM   22  S   UNL     1       2.183   8.616  25.070  0.00  0.00     0.263 S 
HETATM   23  O   UNL     1       1.534   9.654  24.306  0.00  0.00    -0.200 OA
HETATM   24  O   UNL     1       2.641   8.933  26.414  0.00  0.00    -0.200 OA
BRANCH  22  25
HETATM   25  N   UNL     1       1.185   7.234  25.222  0.00  0.00    -0.307 N 
HETATM   26  C   UNL     1      -0.207   7.436  24.742  0.00  0.00     0.163 C 
BRANCH  25  27
HETATM   27  C   UNL     1       1.279   6.328  26.411  0.00  0.00     0.087 C 
HETATM   28  C   UNL     1      -0.132   6.054  26.969  0.00  0.00     0.032 C 
HETATM   29  C   UNL     1       1.882   4.956  26.098  0.00  0.00     0.032 C 
ENDBRANCH  25  27
ENDBRANCH  22  25
ENDBRANCH   1  22
BRANCH   6  30
HETATM   30  O   UNL     1       4.638   7.013  26.108  0.00  0.00    -0.359 OA
HETATM   31  H   UNL     1       5.542   6.754  26.372  0.00  0.00     0.217 HD
ENDBRANCH   6  30
TORSDOF 7
ENDMDL
MODEL 4
REMARK VINA RESULT:    -7.582      5.258      7.741
REMARK INTER + INTRA:         -12.180
REMARK INTER:                 -10.415
REMARK INTRA:                  -1.765
REMARK UNBOUND:                -1.938
REMARK  7 active torsions:
REMARK  status: ('A' for Active; 'I' for Inactive)
REMARK    1  A    between atoms: C_2  and  N_4 
REMARK    2  A    between atoms: N_4  and  S_6 
REMARK    3  A    between atoms: S_6  and  C_9 
REMARK    4  A    between atoms: C_11  and  C_12 
REMARK    5  A    between atoms: N_17  and  C_18 
REMARK    6  A    between atoms: C_25  and  O_26 
REMARK    7  A    between atoms: C_28  and  O_29 
ROOT
HETATM    1  C   UNL     1       2.041   7.297  26.951  0.00  0.00     0.113 A 
HETATM    2  C   UNL     1       1.001   8.162  27.351  0.00  0.00     0.042 A 
HETATM    3  C   UNL     1      -0.054   8.521  26.490  0.00  0.00     0.023 A 
HETATM    4  C   UNL     1       0.005   8.028  25.178  0.00  0.00     0.078 A 
HETATM    5  C   UNL     1       1.045   7.188  24.764  0.00  0.00     0.075 A 
HETATM    6  C   UNL     1       2.056   6.808  25.650  0.00  0.00     0.091 A 
ENDROOT
BRANCH   3   7
HETATM    7  C   UNL     1      -1.144   9.410  27.069  0.00  0.00     0.277 C 
HETATM    8  N   UNL     1      -1.184   9.330  28.545  0.00  0.00    -0.156 NA
HETATM    9  N   UNL     1      -1.258  10.489  29.040  0.00  0.00    -0.093 NA
HETATM   10  C   UNL     1      -1.203  11.431  28.029  0.00  0.00     0.369 C 
HETATM   11  O   UNL     1      -1.318  12.637  28.195  0.00  0.00    -0.243 OA
HETATM   12  N   UNL     1      -1.003  10.799  26.818  0.00  0.00    -0.264 N 
BRANCH  12  13
HETATM   13  C   UNL     1      -1.001  11.424  25.554  0.00  0.00     0.080 A 
HETATM   14  C   UNL     1       0.164  12.078  25.122  0.00  0.00     0.033 A 
HETATM   15  C   UNL     1       0.245  12.594  23.828  0.00  0.00     0.002 A 
HETATM   16  C   UNL     1      -0.851  12.518  22.971  0.00  0.00     0.003 A 
HETATM   17  C   UNL     1      -2.027  11.909  23.404  0.00  0.00     0.044 A 
HETATM   18  C   UNL     1      -2.085  11.347  24.676  0.00  0.00     0.143 A 
HETATM   19  F   UNL     1      -3.234  10.772  25.065  0.00  0.00    -0.204 F 
ENDBRANCH  12  13
ENDBRANCH   3   7
BRANCH   4  20
HETATM   20  O   UNL     1      -0.923   8.298  24.214  0.00  0.00    -0.360 OA
HETATM   21  H   UNL     1      -1.583   8.919  24.555  0.00  0.00     0.217 HD
ENDBRANCH   4  20
BRANCH   1  22
HETATM   22  S   UNL     1       3.119   6.674  28.235  0.00  0.00     0.263 S 
HETATM   23  O   UNL     1       4.480   7.051  27.939  0.00  0.00    -0.200 OA
HETATM   24  O   UNL     1       2.806   5.259  28.352  0.00  0.00    -0.200 OA
BRANCH  22  25
HETATM   25  N   UNL     1       2.569   7.404  29.683  0.00  0.00    -0.307 N 
HETATM   26  C   UNL     1       3.445   8.495  30.182  0.00  0.00     0.163 C 
BRANCH  25  27
HETATM   27  C   UNL     1       1.942   6.595  30.778  0.00  0.00     0.087 C 
HETATM   28  C   UNL     1       2.241   7.249  32.142  0.00  0.00     0.032 C 
HETATM   29  C   UNL     1       0.418   6.499  30.680  0.00  0.00     0.032 C 
ENDBRANCH  25  27
ENDBRANCH  22  25
ENDBRANCH   1  22
BRANCH   6  30
HETATM   30  O   UNL     1       3.048   5.996  25.201  0.00  0.00    -0.359 OA
HETATM   31  H   UNL     1       3.548   5.640  25.960  0.00  0.00     0.217 HD
ENDBRANCH   6  30
TORSDOF 7
ENDMDL
MODEL 5
REMARK VINA RESULT:    -7.389      1.685      3.000
REMARK INTER + INTRA:         -11.919
REMARK INTER:                 -10.231
REMARK INTRA:                  -1.688
REMARK UNBOUND:                -1.938
REMARK  7 active torsions:
REMARK  status: ('A' for Active; 'I' for Inactive)
REMARK    1  A    between atoms: C_2  and  N_4 
REMARK    2  A    between atoms: N_4  and  S_6 
REMARK    3  A    between atoms: S_6  and  C_9 
REMARK    4  A    between atoms: C_11  and  C_12 
REMARK    5  A    between atoms: N_17  and  C_18 
REMARK    6  A    between atoms: C_25  and  O_26 
REMARK    7  A    between atoms: C_28  and  O_29 
ROOT
HETATM    1  C   UNL     1       4.364   7.669  20.985  0.00  0.00     0.113 A 
HETATM    2  C   UNL     1       3.869   8.570  21.949  0.00  0.00     0.042 A 
HETATM    3  C   UNL     1       4.219   8.486  23.310  0.00  0.00     0.023 A 
HETATM    4  C   UNL     1       5.043   7.414  23.686  0.00  0.00     0.078 A 
HETATM    5  C   UNL     1       5.521   6.499  22.741  0.00  0.00     0.075 A 
HETATM    6  C   UNL     1       5.196   6.631  21.388  0.00  0.00     0.091 A 
ENDROOT
BRANCH   3   7
HETATM    7  C   UNL     1       3.665   9.561  24.233  0.00  0.00     0.277 C 
HETATM    8  N   UNL     1       3.345  10.801  23.492  0.00  0.00    -0.156 NA
HETATM    9  N   UNL     1       2.204  11.224  23.829  0.00  0.00    -0.093 NA
HETATM   10  C   UNL     1       1.623  10.339  24.719  0.00  0.00     0.369 C 
HETATM   11  O   UNL     1       0.546  10.514  25.270  0.00  0.00    -0.243 OA
HETATM   12  N   UNL     1       2.445   9.243  24.885  0.00  0.00    -0.264 N 
BRANCH  12  13
HETATM   13  C   UNL     1       2.236   8.187  25.796  0.00  0.00     0.080 A 
HETATM   14  C   UNL     1       2.513   8.401  27.156  0.00  0.00     0.033 A 
HETATM   15  C   UNL     1       2.197   7.425  28.102  0.00  0.00     0.002 A 
HETATM   16  C   UNL     1       1.656   6.205  27.701  0.00  0.00     0.003 A 
HETATM   17  C   UNL     1       1.416   5.967  26.349  0.00  0.00     0.044 A 
HETATM   18  C   UNL     1       1.682   6.963  25.414  0.00  0.00     0.143 A 
HETATM   19  F   UNL     1       1.444   6.701  24.120  0.00  0.00    -0.204 F 
ENDBRANCH  12  13
ENDBRANCH   3   7
BRANCH   4  20
HETATM   20  O   UNL     1       5.456   7.175  24.964  0.00  0.00    -0.360 OA
HETATM   21  H   UNL     1       4.880   7.638  25.590  0.00  0.00     0.217 HD
ENDBRANCH   4  20
BRANCH   1  22
HETATM   22  S   UNL     1       4.102   8.091  19.266  0.00  0.00     0.263 S 
HETATM   23  O   UNL     1       5.369   8.089  18.576  0.00  0.00    -0.200 OA
HETATM   24  O   UNL     1       3.328   9.323  19.283  0.00  0.00    -0.200 OA
BRANCH  22  25
HETATM   25  N   UNL     1       3.056   6.881  18.656  0.00  0.00    -0.307 N 
HETATM   26  C   UNL     1       3.727   5.886  17.779  0.00  0.00     0.163 C 
BRANCH  25  27
HETATM   27  C   UNL     1       1.655   7.199  18.232  0.00  0.00     0.087 C 
HETATM   28  C   UNL     1       1.598   7.354  16.699  0.00  0.00     0.032 C 
HETATM   29  C   UNL     1       0.640   6.109  18.584  0.00  0.00     0.032 C 
ENDBRANCH  25  27
ENDBRANCH  22  25
ENDBRANCH   1  22
BRANCH   6  30
HETATM   30  O   UNL     1       5.679   5.715  20.508  0.00  0.00    -0.359 OA
HETATM   31  H   UNL     1       6.504   6.050  20.108  0.00  0.00     0.217 HD
ENDBRANCH   6  30
TORSDOF 7
ENDMDL
MODEL 6
REMARK VINA RESULT:    -7.370      2.684      6.575
REMARK INTER + INTRA:         -11.894
REMARK INTER:                 -10.338
REMARK INTRA:                  -1.555
REMARK UNBOUND:                -1.938
REMARK  7 active torsions:
REMARK  status: ('A' for Active; 'I' for Inactive)
REMARK    1  A    between atoms: C_2  and  N_4 
REMARK    2  A    between atoms: N_4  and  S_6 
REMARK    3  A    between atoms: S_6  and  C_9 
REMARK    4  A    between atoms: C_11  and  C_12 
REMARK    5  A    between atoms: N_17  and  C_18 
REMARK    6  A    between atoms: C_25  and  O_26 
REMARK    7  A    between atoms: C_28  and  O_29 
ROOT
HETATM    1  C   UNL     1       3.636   7.906  24.215  0.00  0.00     0.113 A 
HETATM    2  C   UNL     1       3.656   8.168  22.830  0.00  0.00     0.042 A 
HETATM    3  C   UNL     1       4.652   7.649  21.979  0.00  0.00     0.023 A 
HETATM    4  C   UNL     1       5.674   6.904  22.583  0.00  0.00     0.078 A 
HETATM    5  C   UNL     1       5.678   6.658  23.961  0.00  0.00     0.075 A 
HETATM    6  C   UNL     1       4.653   7.145  24.778  0.00  0.00     0.091 A 
ENDROOT
BRANCH   3   7
HETATM    7  C   UNL     1       4.518   7.955  20.494  0.00  0.00     0.277 C 
HETATM    8  N   UNL     1       5.803   8.401  19.913  0.00  0.00    -0.156 NA
HETATM    9  N   UNL     1       6.020   7.796  18.827  0.00  0.00    -0.093 NA
HETATM   10  C   UNL     1       5.015   6.874  18.599  0.00  0.00     0.369 C 
HETATM   11  O   UNL     1       4.920   6.184  17.593  0.00  0.00    -0.243 OA
HETATM   12  N   UNL     1       4.147   6.860  19.672  0.00  0.00    -0.264 N 
BRANCH  12  13
HETATM   13  C   UNL     1       2.945   6.126  19.749  0.00  0.00     0.080 A 
HETATM   14  C   UNL     1       1.853   6.531  18.965  0.00  0.00     0.033 A 
HETATM   15  C   UNL     1       0.693   5.756  18.918  0.00  0.00     0.002 A 
HETATM   16  C   UNL     1       0.586   4.603  19.693  0.00  0.00     0.003 A 
HETATM   17  C   UNL     1       1.648   4.215  20.507  0.00  0.00     0.044 A 
HETATM   18  C   UNL     1       2.823   4.960  20.509  0.00  0.00     0.143 A 
HETATM   19  F   UNL     1       3.826   4.563  21.307  0.00  0.00    -0.204 F 
ENDBRANCH  12  13
ENDBRANCH   3   7
BRANCH   4  20
HETATM   20  O   UNL     1       6.724   6.351  21.908  0.00  0.00    -0.360 OA
HETATM   21  H   UNL     1       6.517   5.435  21.668  0.00  0.00     0.217 HD
ENDBRANCH   4  20
BRANCH   1  22
HETATM   22  S   UNL     1       2.149   8.350  25.104  0.00  0.00     0.263 S 
HETATM   23  O   UNL     1       2.402   8.278  26.523  0.00  0.00    -0.200 OA
HETATM   24  O   UNL     1       1.100   7.510  24.548  0.00  0.00    -0.200 OA
BRANCH  22  25
HETATM   25  N   UNL     1       1.787   9.949  24.614  0.00  0.00    -0.307 N 
HETATM   26  C   UNL     1       2.968  10.849  24.563  0.00  0.00     0.163 C 
BRANCH  25  27
HETATM   27  C   UNL     1       0.532  10.638  25.056  0.00  0.00     0.087 C 
HETATM   28  C   UNL     1       0.527  12.091  24.539  0.00  0.00     0.032 C 
HETATM   29  C   UNL     1      -0.749   9.995  24.519  0.00  0.00     0.032 C 
ENDBRANCH  25  27
ENDBRANCH  22  25
ENDBRANCH   1  22
BRANCH   6  30
HETATM   30  O   UNL     1       4.702   6.887  26.111  0.00  0.00    -0.359 OA
HETATM   31  H   UNL     1       3.925   7.284  26.549  0.00  0.00     0.217 HD
ENDBRANCH   6  30
TORSDOF 7
ENDMDL
MODEL 7
REMARK VINA RESULT:    -7.075      2.153      3.450
REMARK INTER + INTRA:         -11.496
REMARK INTER:                  -9.857
REMARK INTRA:                  -1.638
REMARK UNBOUND:                -1.938
REMARK  7 active torsions:
REMARK  status: ('A' for Active; 'I' for Inactive)
REMARK    1  A    between atoms: C_2  and  N_4 
REMARK    2  A    between atoms: N_4  and  S_6 
REMARK    3  A    between atoms: S_6  and  C_9 
REMARK    4  A    between atoms: C_11  and  C_12 
REMARK    5  A    between atoms: N_17  and  C_18 
REMARK    6  A    between atoms: C_25  and  O_26 
REMARK    7  A    between atoms: C_28  and  O_29 
ROOT
HETATM    1  C   UNL     1       4.122   7.317  22.350  0.00  0.00     0.113 A 
HETATM    2  C   UNL     1       3.341   8.209  23.113  0.00  0.00     0.042 A 
HETATM    3  C   UNL     1       3.411   8.260  24.519  0.00  0.00     0.023 A 
HETATM    4  C   UNL     1       4.254   7.330  25.144  0.00  0.00     0.078 A 
HETATM    5  C   UNL     1       5.016   6.424  24.398  0.00  0.00     0.075 A 
HETATM    6  C   UNL     1       4.965   6.424  23.001  0.00  0.00     0.091 A 
ENDROOT
BRANCH   3   7
HETATM    7  C   UNL     1       2.561   9.313  25.213  0.00  0.00     0.277 C 
HETATM    8  N   UNL     1       2.473  10.554  24.414  0.00  0.00    -0.156 NA
HETATM    9  N   UNL     1       1.276  10.951  24.361  0.00  0.00    -0.093 NA
HETATM   10  C   UNL     1       0.456  10.045  25.008  0.00  0.00     0.369 C 
HETATM   11  O   UNL     1      -0.747  10.192  25.177  0.00  0.00    -0.243 OA
HETATM   12  N   UNL     1       1.203   8.963  25.429  0.00  0.00    -0.264 N 
BRANCH  12  13
HETATM   13  C   UNL     1       0.731   7.893  26.217  0.00  0.00     0.080 A 
HETATM   14  C   UNL     1       1.161   7.792  27.550  0.00  0.00     0.033 A 
HETATM   15  C   UNL     1       0.616   6.824  28.395  0.00  0.00     0.002 A 
HETATM   16  C   UNL     1      -0.318   5.912  27.910  0.00  0.00     0.003 A 
HETATM   17  C   UNL     1      -0.721   5.977  26.578  0.00  0.00     0.044 A 
HETATM   18  C   UNL     1      -0.216   6.977  25.752  0.00  0.00     0.143 A 
HETATM   19  F   UNL     1      -0.621   7.011  24.473  0.00  0.00    -0.204 F 
ENDBRANCH  12  13
ENDBRANCH   3   7
BRANCH   4  20
HETATM   20  O   UNL     1       4.420   7.230  26.495  0.00  0.00    -0.360 OA
HETATM   21  H   UNL     1       5.359   7.114  26.705  0.00  0.00     0.217 HD
ENDBRANCH   4  20
BRANCH   1  22
HETATM   22  S   UNL     1       4.173   7.588  20.583  0.00  0.00     0.263 S 
HETATM   23  O   UNL     1       5.476   7.221  20.082  0.00  0.00    -0.200 OA
HETATM   24  O   UNL     1       3.720   8.956  20.387  0.00  0.00    -0.200 OA
BRANCH  22  25
HETATM   25  N   UNL     1       2.948   6.584  19.934  0.00  0.00    -0.307 N 
HETATM   26  C   UNL     1       3.264   5.133  19.984  0.00  0.00     0.163 C 
BRANCH  25  27
HETATM   27  C   UNL     1       2.174   6.983  18.715  0.00  0.00     0.087 C 
HETATM   28  C   UNL     1       3.002   6.676  17.450  0.00  0.00     0.032 C 
HETATM   29  C   UNL     1       0.853   6.229  18.547  0.00  0.00     0.032 C 
ENDBRANCH  25  27
ENDBRANCH  22  25
ENDBRANCH   1  22
BRANCH   6  30
HETATM   30  O   UNL     1       5.718   5.522  22.319  0.00  0.00    -0.359 OA
HETATM   31  H   UNL     1       5.694   4.661  22.780  0.00  0.00     0.217 HD
ENDBRANCH   6  30
TORSDOF 7
ENDMDL
MODEL 8
REMARK VINA RESULT:    -7.056      3.296      7.364
REMARK INTER + INTRA:         -11.469
REMARK INTER:                  -9.107
REMARK INTRA:                  -2.362
REMARK UNBOUND:                -1.938
REMARK  7 active torsions:
REMARK  status: ('A' for Active; 'I' for Inactive)
REMARK    1  A    between atoms: C_2  and  N_4 
REMARK    2  A    between atoms: N_4  and  S_6 
REMARK    3  A    between atoms: S_6  and  C_9 
REMARK    4  A    between atoms: C_11  and  C_12 
REMARK    5  A    between atoms: N_17  and  C_18 
REMARK    6  A    between atoms: C_25  and  O_26 
REMARK    7  A    between atoms: C_28  and  O_29 
ROOT
HETATM    1  C   UNL     1       4.298   7.244  21.128  0.00  0.00     0.113 A 
HETATM    2  C   UNL     1       3.216   7.288  20.226  0.00  0.00     0.042 A 
HETATM    3  C   UNL     1       3.335   6.876  18.884  0.00  0.00     0.023 A 
HETATM    4  C   UNL     1       4.609   6.474  18.457  0.00  0.00     0.078 A 
HETATM    5  C   UNL     1       5.696   6.449  19.338  0.00  0.00     0.075 A 
HETATM    6  C   UNL     1       5.542   6.818  20.677  0.00  0.00     0.091 A 
ENDROOT
BRANCH   3   7
HETATM    7  C   UNL     1       2.073   6.914  18.036  0.00  0.00     0.277 C 
HETATM    8  N   UNL     1       2.234   7.798  16.861  0.00  0.00    -0.156 NA
HETATM    9  N   UNL     1       1.806   7.221  15.823  0.00  0.00    -0.093 NA
HETATM   10  C   UNL     1       1.404   5.936  16.137  0.00  0.00     0.369 C 
HETATM   11  O   UNL     1       0.884   5.157  15.350  0.00  0.00    -0.243 OA
HETATM   12  N   UNL     1       1.677   5.677  17.465  0.00  0.00    -0.264 N 
BRANCH  12  13
HETATM   13  C   UNL     1       1.309   4.511  18.169  0.00  0.00     0.080 A 
HETATM   14  C   UNL     1       0.025   4.436  18.731  0.00  0.00     0.033 A 
HETATM   15  C   UNL     1      -0.418   3.251  19.322  0.00  0.00     0.002 A 
HETATM   16  C   UNL     1       0.431   2.150  19.411  0.00  0.00     0.003 A 
HETATM   17  C   UNL     1       1.722   2.228  18.895  0.00  0.00     0.044 A 
HETATM   18  C   UNL     1       2.142   3.392  18.258  0.00  0.00     0.143 A 
HETATM   19  F   UNL     1       3.393   3.438  17.775  0.00  0.00    -0.204 F 
ENDBRANCH  12  13
ENDBRANCH   3   7
BRANCH   4  20
HETATM   20  O   UNL     1       4.901   6.067  17.188  0.00  0.00    -0.360 OA
HETATM   21  H   UNL     1       4.949   6.834  16.598  0.00  0.00     0.217 HD
ENDBRANCH   4  20
BRANCH   1  22
HETATM   22  S   UNL     1       3.922   7.482  22.860  0.00  0.00     0.263 S 
HETATM   23  O   UNL     1       3.227   8.735  23.029  0.00  0.00    -0.200 OA
HETATM   24  O   UNL     1       5.182   7.293  23.561  0.00  0.00    -0.200 OA
BRANCH  22  25
HETATM   25  N   UNL     1       2.932   6.155  23.296  0.00  0.00    -0.307 N 
HETATM   26  C   UNL     1       2.167   6.357  24.554  0.00  0.00     0.163 C 
BRANCH  25  27
HETATM   27  C   UNL     1       3.387   4.741  23.097  0.00  0.00     0.087 C 
HETATM   28  C   UNL     1       3.093   3.917  24.366  0.00  0.00     0.032 C 
HETATM   29  C   UNL     1       2.675   4.018  21.950  0.00  0.00     0.032 C 
ENDBRANCH  25  27
ENDBRANCH  22  25
ENDBRANCH   1  22
BRANCH   6  30
HETATM   30  O   UNL     1       6.627   6.784  21.494  0.00  0.00    -0.359 OA
HETATM   31  H   UNL     1       7.331   7.352  21.126  0.00  0.00     0.217 HD
ENDBRANCH   6  30
TORSDOF 7
ENDMDL
MODEL 9
REMARK VINA RESULT:    -6.924      2.673      7.185
REMARK INTER + INTRA:         -11.291
REMARK INTER:                  -9.352
REMARK INTRA:                  -1.938
REMARK UNBOUND:                -1.938
REMARK  7 active torsions:
REMARK  status: ('A' for Active; 'I' for Inactive)
REMARK    1  A    between atoms: C_2  and  N_4 
REMARK    2  A    between atoms: N_4  and  S_6 
REMARK    3  A    between atoms: S_6  and  C_9 
REMARK    4  A    between atoms: C_11  and  C_12 
REMARK    5  A    between atoms: N_17  and  C_18 
REMARK    6  A    between atoms: C_25  and  O_26 
REMARK    7  A    between atoms: C_28  and  O_29 
ROOT
HETATM    1  C   UNL     1       4.444   6.834  21.803  0.00  0.00     0.113 A 
HETATM    2  C   UNL     1       3.354   7.040  20.932  0.00  0.00     0.042 A 
HETATM    3  C   UNL     1       3.478   6.941  19.532  0.00  0.00     0.023 A 
HETATM    4  C   UNL     1       4.762   6.689  19.028  0.00  0.00     0.078 A 
HETATM    5  C   UNL     1       5.855   6.507  19.882  0.00  0.00     0.075 A 
HETATM    6  C   UNL     1       5.698   6.563  21.270  0.00  0.00     0.091 A 
ENDROOT
BRANCH   3   7
HETATM    7  C   UNL     1       2.209   7.124  18.713  0.00  0.00     0.277 C 
HETATM    8  N   UNL     1       2.322   8.268  17.783  0.00  0.00    -0.156 NA
HETATM    9  N   UNL     1       1.913   7.935  16.636  0.00  0.00    -0.093 NA
HETATM   10  C   UNL     1       1.570   6.596  16.634  0.00  0.00     0.369 C 
HETATM   11  O   UNL     1       1.080   6.004  15.682  0.00  0.00    -0.243 OA
HETATM   12  N   UNL     1       1.865   6.041  17.863  0.00  0.00    -0.264 N 
BRANCH  12  13
HETATM   13  C   UNL     1       1.554   4.727  18.269  0.00  0.00     0.080 A 
HETATM   14  C   UNL     1       2.434   3.687  17.929  0.00  0.00     0.033 A 
HETATM   15  C   UNL     1       2.227   2.397  18.422  0.00  0.00     0.002 A 
HETATM   16  C   UNL     1       1.112   2.117  19.210  0.00  0.00     0.003 A 
HETATM   17  C   UNL     1       0.210   3.132  19.518  0.00  0.00     0.044 A 
HETATM   18  C   UNL     1       0.449   4.428  19.070  0.00  0.00     0.143 A 
HETATM   19  F   UNL     1      -0.441   5.383  19.380  0.00  0.00    -0.204 F 
ENDBRANCH  12  13
ENDBRANCH   3   7
BRANCH   4  20
HETATM   20  O   UNL     1       5.059   6.586  17.700  0.00  0.00    -0.360 OA
HETATM   21  H   UNL     1       5.846   7.112  17.495  0.00  0.00     0.217 HD
ENDBRANCH   4  20
BRANCH   1  22
HETATM   22  S   UNL     1       4.071   6.666  23.544  0.00  0.00     0.263 S 
HETATM   23  O   UNL     1       5.285   6.830  24.309  0.00  0.00    -0.200 OA
HETATM   24  O   UNL     1       3.343   5.413  23.667  0.00  0.00    -0.200 OA
BRANCH  22  25
HETATM   25  N   UNL     1       2.944   7.907  23.889  0.00  0.00    -0.307 N 
HETATM   26  C   UNL     1       3.538   9.269  23.937  0.00  0.00     0.163 C 
BRANCH  25  27
HETATM   27  C   UNL     1       1.836   7.705  24.877  0.00  0.00     0.087 C 
HETATM   28  C   UNL     1       2.420   7.625  26.302  0.00  0.00     0.032 C 
HETATM   29  C   UNL     1       0.815   8.845  24.903  0.00  0.00     0.032 C 
ENDBRANCH  25  27
ENDBRANCH  22  25
ENDBRANCH   1  22
BRANCH   6  30
HETATM   30  O   UNL     1       6.790   6.386  22.059  0.00  0.00    -0.359 OA
HETATM   31  H   UNL     1       7.304   7.214  22.096  0.00  0.00     0.217 HD
ENDBRANCH   6  30
TORSDOF 7
ENDMDL
