MODEL 1
REMARK VINA RESULT:    -7.154      0.000      0.000
REMARK INTER + INTRA:          -9.430
REMARK INTER:                  -8.413
REMARK INTRA:                  -1.017
REMARK UNBOUND:                -1.021
REMARK  4 active torsions:
REMARK  status: ('A' for Active; 'I' for Inactive)
REMARK    1  A    between atoms: C_6  and  C_7 
REMARK    2  A    between atoms: C_10  and  O_11 
REMARK    3  A    between atoms: C_13  and  O_14 
REMARK    4  A    between atoms: N_15  and  C_16 
ROOT
HETATM    1  O   UNL     1       6.983  14.781  26.839  0.00  0.00    -0.245 OA
HETATM    2  C   UNL     1       7.609  14.578  25.809  0.00  0.00     0.349 A 
HETATM    3  N   UNL     1       8.969  14.335  25.750  0.00  0.00    -0.226 N 
HETATM    4  H   UNL     1       9.587  14.256  26.546  0.00  0.00     0.194 HD
HETATM    5  N   UNL     1       9.350  14.027  24.482  0.00  0.00    -0.151 NA
HETATM    6  C   UNL     1       8.254  14.116  23.767  0.00  0.00     0.172 A 
HETATM    7  N   UNL     1       7.151  14.460  24.508  0.00  0.00    -0.243 N 
ENDROOT
BRANCH   6   8
HETATM    8  C   UNL     1       8.307  13.881  22.300  0.00  0.00     0.045 A 
HETATM    9  C   UNL     1       7.963  12.582  21.870  0.00  0.00     0.021 A 
HETATM   10  C   UNL     1       7.974  12.235  20.517  0.00  0.00     0.037 A 
HETATM   11  C   UNL     1       8.320  13.197  19.579  0.00  0.00     0.068 A 
HETATM   12  C   UNL     1       8.686  14.479  19.974  0.00  0.00     0.074 A 
HETATM   13  C   UNL     1       8.719  14.807  21.335  0.00  0.00     0.082 A 
BRANCH  11  14
HETATM   14  O   UNL     1       8.339  12.913  18.246  0.00  0.00    -0.361 OA
HETATM   15  H   UNL     1       8.525  11.966  18.131  0.00  0.00     0.217 HD
ENDBRANCH  11  14
BRANCH  13  16
HETATM   16  O   UNL     1       9.217  16.026  21.696  0.00  0.00    -0.360 OA
HETATM   17  H   UNL     1       9.801  15.920  22.467  0.00  0.00     0.217 HD
ENDBRANCH  13  16
ENDBRANCH   6   8
BRANCH   7  18
HETATM   18  C   UNL     1       5.770  14.495  24.228  0.00  0.00     0.067 A 
HETATM   19  C   UNL     1       5.186  15.762  24.035  0.00  0.00     0.032 A 
HETATM   20  C   UNL     1       3.812  15.905  23.828  0.00  0.00     0.002 A 
HETATM   21  C   UNL     1       2.996  14.783  23.828  0.00  0.00     0.002 A 
HETATM   22  C   UNL     1       3.554  13.518  24.021  0.00  0.00     0.026 A 
HETATM   23  C   UNL     1       4.933  13.365  24.224  0.00  0.00     0.061 A 
HETATM   24 CL   UNL     1       5.496  11.779  24.610  0.00  0.00    -0.082 Cl
ENDBRANCH   7  18
TORSDOF 4
ENDMDL
MODEL 2
REMARK VINA RESULT:    -7.020      1.493      1.751
REMARK INTER + INTRA:          -9.272
REMARK INTER:                  -8.213
REMARK INTRA:                  -1.059
REMARK UNBOUND:                -1.021
REMARK  4 active torsions:
REMARK  status: ('A' for Active; 'I' for Inactive)
REMARK    1  A    between atoms: C_6  and  C_7 
REMARK    2  A    between atoms: C_10  and  O_11 
REMARK    3  A    between atoms: C_13  and  O_14 
REMARK    4  A    between atoms: N_15  and  C_16 
ROOT
HETATM    1  O   UNL     1       7.121  14.801  27.089  0.00  0.00    -0.245 OA
HETATM    2  C   UNL     1       7.517  14.135  26.143  0.00  0.00     0.349 A 
HETATM    3  N   UNL     1       8.711  13.438  26.116  0.00  0.00    -0.226 N 
HETATM    4  H   UNL     1       9.365  13.364  26.883  0.00  0.00     0.194 HD
HETATM    5  N   UNL     1       8.813  12.700  24.979  0.00  0.00    -0.151 NA
HETATM    6  C   UNL     1       7.722  12.968  24.301  0.00  0.00     0.172 A 
HETATM    7  N   UNL     1       6.887  13.846  24.945  0.00  0.00    -0.243 N 
ENDROOT
BRANCH   6   8
HETATM    8  C   UNL     1       7.515  12.355  22.962  0.00  0.00     0.045 A 
HETATM    9  C   UNL     1       6.497  11.382  22.879  0.00  0.00     0.021 A 
HETATM   10  C   UNL     1       6.206  10.733  21.677  0.00  0.00     0.037 A 
HETATM   11  C   UNL     1       6.928  11.067  20.540  0.00  0.00     0.068 A 
HETATM   12  C   UNL     1       7.951  12.005  20.596  0.00  0.00     0.074 A 
HETATM   13  C   UNL     1       8.272  12.618  21.815  0.00  0.00     0.082 A 
BRANCH  11  14
HETATM   14  O   UNL     1       6.677  10.469  19.341  0.00  0.00    -0.361 OA
HETATM   15  H   UNL     1       5.718  10.467  19.187  0.00  0.00     0.217 HD
ENDBRANCH  11  14
BRANCH  13  16
HETATM   16  O   UNL     1       9.371  13.425  21.864  0.00  0.00    -0.360 OA
HETATM   17  H   UNL     1       9.424  13.949  21.046  0.00  0.00     0.217 HD
ENDBRANCH  13  16
ENDBRANCH   6   8
BRANCH   7  18
HETATM   18  C   UNL     1       5.566  14.275  24.707  0.00  0.00     0.067 A 
HETATM   19  C   UNL     1       5.400  15.522  24.071  0.00  0.00     0.032 A 
HETATM   20  C   UNL     1       4.131  16.066  23.860  0.00  0.00     0.002 A 
HETATM   21  C   UNL     1       3.007  15.382  24.299  0.00  0.00     0.002 A 
HETATM   22  C   UNL     1       3.149  14.147  24.935  0.00  0.00     0.026 A 
HETATM   23  C   UNL     1       4.419  13.590  25.145  0.00  0.00     0.061 A 
HETATM   24 CL   UNL     1       4.492  12.140  26.078  0.00  0.00    -0.082 Cl
ENDBRANCH   7  18
TORSDOF 4
ENDMDL
MODEL 3
REMARK VINA RESULT:    -6.961      2.441      5.310
REMARK INTER + INTRA:          -9.202
REMARK INTER:                  -8.259
REMARK INTRA:                  -0.944
REMARK UNBOUND:                -1.021
REMARK  4 active torsions:
REMARK  status: ('A' for Active; 'I' for Inactive)
REMARK    1  A    between atoms: C_6  and  C_7 
REMARK    2  A    between atoms: C_10  and  O_11 
REMARK    3  A    between atoms: C_13  and  O_14 
REMARK    4  A    between atoms: N_15  and  C_16 
ROOT
HETATM    1  O   UNL     1       8.858  12.986  20.074  0.00  0.00    -0.245 OA
HETATM    2  C   UNL     1       8.352  13.780  20.853  0.00  0.00     0.349 A 
HETATM    3  N   UNL     1       8.478  15.155  20.767  0.00  0.00    -0.226 N 
HETATM    4  H   UNL     1       8.962  15.656  20.035  0.00  0.00     0.194 HD
HETATM    5  N   UNL     1       7.704  15.769  21.701  0.00  0.00    -0.151 NA
HETATM    6  C   UNL     1       7.143  14.792  22.374  0.00  0.00     0.172 A 
HETATM    7  N   UNL     1       7.501  13.547  21.919  0.00  0.00    -0.243 N 
ENDROOT
BRANCH   6   8
HETATM    8  C   UNL     1       6.246  15.103  23.518  0.00  0.00     0.045 A 
HETATM    9  C   UNL     1       5.082  15.837  23.209  0.00  0.00     0.021 A 
HETATM   10  C   UNL     1       4.160  16.191  24.198  0.00  0.00     0.037 A 
HETATM   11  C   UNL     1       4.394  15.798  25.507  0.00  0.00     0.068 A 
HETATM   12  C   UNL     1       5.543  15.093  25.846  0.00  0.00     0.074 A 
HETATM   13  C   UNL     1       6.488  14.782  24.859  0.00  0.00     0.082 A 
BRANCH  11  14
HETATM   14  O   UNL     1       3.522  16.111  26.507  0.00  0.00    -0.361 OA
HETATM   15  H   UNL     1       3.991  16.631  27.180  0.00  0.00     0.217 HD
ENDBRANCH  11  14
BRANCH  13  16
HETATM   16  O   UNL     1       7.668  14.216  25.247  0.00  0.00    -0.360 OA
HETATM   17  H   UNL     1       7.829  14.419  26.185  0.00  0.00     0.217 HD
ENDBRANCH  13  16
ENDBRANCH   6   8
BRANCH   7  18
HETATM   18  C   UNL     1       7.032  12.247  22.192  0.00  0.00     0.067 A 
HETATM   19  C   UNL     1       5.722  11.935  21.774  0.00  0.00     0.032 A 
HETATM   20  C   UNL     1       5.142  10.699  22.066  0.00  0.00     0.002 A 
HETATM   21  C   UNL     1       5.855   9.759  22.795  0.00  0.00     0.002 A 
HETATM   22  C   UNL     1       7.153  10.048  23.222  0.00  0.00     0.026 A 
HETATM   23  C   UNL     1       7.745  11.285  22.928  0.00  0.00     0.061 A 
HETATM   24 CL   UNL     1       9.288  11.600  23.636  0.00  0.00    -0.082 Cl
ENDBRANCH   7  18
TORSDOF 4
ENDMDL
MODEL 4
REMARK VINA RESULT:    -6.886      2.781      3.539
REMARK INTER + INTRA:          -9.115
REMARK INTER:                  -8.101
REMARK INTRA:                  -1.014
REMARK UNBOUND:                -1.021
REMARK  4 active torsions:
REMARK  status: ('A' for Active; 'I' for Inactive)
REMARK    1  A    between atoms: C_6  and  C_7 
REMARK    2  A    between atoms: C_10  and  O_11 
REMARK    3  A    between atoms: C_13  and  O_14 
REMARK    4  A    between atoms: N_15  and  C_16 
ROOT
HETATM    1  O   UNL     1       8.622  15.171  26.543  0.00  0.00    -0.245 OA
HETATM    2  C   UNL     1       8.411  14.105  25.984  0.00  0.00     0.349 A 
HETATM    3  N   UNL     1       9.176  12.965  26.150  0.00  0.00    -0.226 N 
HETATM    4  H   UNL     1       9.962  12.871  26.779  0.00  0.00     0.194 HD
HETATM    5  N   UNL     1       8.623  11.912  25.492  0.00  0.00    -0.151 NA
HETATM    6  C   UNL     1       7.559  12.402  24.900  0.00  0.00     0.172 A 
HETATM    7  N   UNL     1       7.372  13.739  25.146  0.00  0.00    -0.243 N 
ENDROOT
BRANCH   6   8
HETATM    8  C   UNL     1       6.720  11.524  24.043  0.00  0.00     0.045 A 
HETATM    9  C   UNL     1       5.499  11.097  24.606  0.00  0.00     0.021 A 
HETATM   10  C   UNL     1       4.621  10.270  23.900  0.00  0.00     0.037 A 
HETATM   11  C   UNL     1       4.959   9.872  22.615  0.00  0.00     0.068 A 
HETATM   12  C   UNL     1       6.165  10.258  22.043  0.00  0.00     0.074 A 
HETATM   13  C   UNL     1       7.063  11.049  22.773  0.00  0.00     0.082 A 
BRANCH  11  14
HETATM   14  O   UNL     1       4.134   9.072  21.882  0.00  0.00    -0.361 OA
HETATM   15  H   UNL     1       4.603   8.246  21.675  0.00  0.00     0.217 HD
ENDBRANCH  11  14
BRANCH  13  16
HETATM   16  O   UNL     1       8.295  11.291  22.238  0.00  0.00    -0.360 OA
HETATM   17  H   UNL     1       8.797  10.458  22.194  0.00  0.00     0.217 HD
ENDBRANCH  13  16
ENDBRANCH   6   8
BRANCH   7  18
HETATM   18  C   UNL     1       6.310  14.630  24.890  0.00  0.00     0.067 A 
HETATM   19  C   UNL     1       5.402  14.866  25.940  0.00  0.00     0.032 A 
HETATM   20  C   UNL     1       4.276  15.673  25.760  0.00  0.00     0.002 A 
HETATM   21  C   UNL     1       4.030  16.244  24.520  0.00  0.00     0.002 A 
HETATM   22  C   UNL     1       4.916  16.020  23.464  0.00  0.00     0.026 A 
HETATM   23  C   UNL     1       6.052  15.216  23.638  0.00  0.00     0.061 A 
HETATM   24 CL   UNL     1       6.992  14.876  22.231  0.00  0.00    -0.082 Cl
ENDBRANCH   7  18
TORSDOF 4
ENDMDL
MODEL 5
REMARK VINA RESULT:    -6.829      2.260      2.770
REMARK INTER + INTRA:          -9.048
REMARK INTER:                  -8.369
REMARK INTRA:                  -0.679
REMARK UNBOUND:                -1.021
REMARK  4 active torsions:
REMARK  status: ('A' for Active; 'I' for Inactive)
REMARK    1  A    between atoms: C_6  and  C_7 
REMARK    2  A    between atoms: C_10  and  O_11 
REMARK    3  A    between atoms: C_13  and  O_14 
REMARK    4  A    between atoms: N_15  and  C_16 
ROOT
HETATM    1  O   UNL     1       8.080  14.986  27.023  0.00  0.00    -0.245 OA
HETATM    2  C   UNL     1       8.236  14.164  26.132  0.00  0.00     0.349 A 
HETATM    3  N   UNL     1       9.204  13.176  26.133  0.00  0.00    -0.226 N 
HETATM    4  H   UNL     1       9.858  12.996  26.883  0.00  0.00     0.194 HD
HETATM    5  N   UNL     1       9.048  12.346  25.069  0.00  0.00    -0.151 NA
HETATM    6  C   UNL     1       8.028  12.835  24.403  0.00  0.00     0.172 A 
HETATM    7  N   UNL     1       7.487  13.953  24.988  0.00  0.00    -0.243 N 
ENDROOT
BRANCH   6   8
HETATM    8  C   UNL     1       7.595  12.189  23.136  0.00  0.00     0.045 A 
HETATM    9  C   UNL     1       8.463  12.346  22.035  0.00  0.00     0.021 A 
HETATM   10  C   UNL     1       8.168  11.786  20.790  0.00  0.00     0.037 A 
HETATM   11  C   UNL     1       7.001  11.051  20.642  0.00  0.00     0.068 A 
HETATM   12  C   UNL     1       6.116  10.897  21.703  0.00  0.00     0.074 A 
HETATM   13  C   UNL     1       6.393  11.501  22.936  0.00  0.00     0.082 A 
BRANCH  11  14
HETATM   14  O   UNL     1       6.671  10.477  19.450  0.00  0.00    -0.361 OA
HETATM   15  H   UNL     1       6.796  11.131  18.743  0.00  0.00     0.217 HD
ENDBRANCH  11  14
BRANCH  13  16
HETATM   16  O   UNL     1       5.438  11.451  23.910  0.00  0.00    -0.360 OA
HETATM   17  H   UNL     1       5.693  10.790  24.577  0.00  0.00     0.217 HD
ENDBRANCH  13  16
ENDBRANCH   6   8
BRANCH   7  18
HETATM   18  C   UNL     1       6.311  14.694  24.753  0.00  0.00     0.067 A 
HETATM   19  C   UNL     1       5.275  14.571  25.699  0.00  0.00     0.032 A 
HETATM   20  C   UNL     1       4.045  15.206  25.515  0.00  0.00     0.002 A 
HETATM   21  C   UNL     1       3.824  15.961  24.372  0.00  0.00     0.002 A 
HETATM   22  C   UNL     1       4.836  16.092  23.420  0.00  0.00     0.026 A 
HETATM   23  C   UNL     1       6.076  15.463  23.600  0.00  0.00     0.061 A 
HETATM   24 CL   UNL     1       7.199  15.560  22.291  0.00  0.00    -0.082 Cl
ENDBRANCH   7  18
TORSDOF 4
ENDMDL
MODEL 6
REMARK VINA RESULT:    -6.653      2.177      2.810
REMARK INTER + INTRA:          -8.840
REMARK INTER:                  -8.266
REMARK INTRA:                  -0.574
REMARK UNBOUND:                -1.021
REMARK  4 active torsions:
REMARK  status: ('A' for Active; 'I' for Inactive)
REMARK    1  A    between atoms: C_6  and  C_7 
REMARK    2  A    between atoms: C_10  and  O_11 
REMARK    3  A    between atoms: C_13  and  O_14 
REMARK    4  A    between atoms: N_15  and  C_16 
ROOT
HETATM    1  O   UNL     1       8.472  15.419  25.325  0.00  0.00    -0.245 OA
HETATM    2  C   UNL     1       8.339  14.552  24.475  0.00  0.00     0.349 A 
HETATM    3  N   UNL     1       9.370  13.778  23.972  0.00  0.00    -0.226 N 
HETATM    4  H   UNL     1      10.333  13.812  24.279  0.00  0.00     0.194 HD
HETATM    5  N   UNL     1       8.892  12.823  23.133  0.00  0.00    -0.151 NA
HETATM    6  C   UNL     1       7.596  13.027  23.088  0.00  0.00     0.172 A 
HETATM    7  N   UNL     1       7.187  14.075  23.874  0.00  0.00    -0.243 N 
ENDROOT
BRANCH   6   8
HETATM    8  C   UNL     1       6.744  12.175  22.217  0.00  0.00     0.045 A 
HETATM    9  C   UNL     1       5.387  12.074  22.591  0.00  0.00     0.021 A 
HETATM   10  C   UNL     1       4.484  11.304  21.853  0.00  0.00     0.037 A 
HETATM   11  C   UNL     1       4.935  10.638  20.723  0.00  0.00     0.068 A 
HETATM   12  C   UNL     1       6.270  10.701  20.343  0.00  0.00     0.074 A 
HETATM   13  C   UNL     1       7.181  11.436  21.113  0.00  0.00     0.082 A 
BRANCH  11  14
HETATM   14  O   UNL     1       4.093   9.880  19.965  0.00  0.00    -0.361 OA
HETATM   15  H   UNL     1       4.561   9.076  19.686  0.00  0.00     0.217 HD
ENDBRANCH  11  14
BRANCH  13  16
HETATM   16  O   UNL     1       8.506  11.361  20.794  0.00  0.00    -0.360 OA
HETATM   17  H   UNL     1       8.954  12.175  21.085  0.00  0.00     0.217 HD
ENDBRANCH  13  16
ENDBRANCH   6   8
BRANCH   7  18
HETATM   18  C   UNL     1       5.921  14.542  24.280  0.00  0.00     0.067 A 
HETATM   19  C   UNL     1       5.368  15.614  23.552  0.00  0.00     0.032 A 
HETATM   20  C   UNL     1       4.154  16.195  23.925  0.00  0.00     0.002 A 
HETATM   21  C   UNL     1       3.481  15.726  25.043  0.00  0.00     0.002 A 
HETATM   22  C   UNL     1       4.013  14.667  25.781  0.00  0.00     0.026 A 
HETATM   23  C   UNL     1       5.228  14.073  25.410  0.00  0.00     0.061 A 
HETATM   24 CL   UNL     1       5.874  12.880  26.479  0.00  0.00    -0.082 Cl
ENDBRANCH   7  18
TORSDOF 4
ENDMDL
MODEL 7
REMARK VINA RESULT:    -6.540      4.575      7.004
REMARK INTER + INTRA:          -8.708
REMARK INTER:                  -7.826
REMARK INTRA:                  -0.882
REMARK UNBOUND:                -1.021
REMARK  4 active torsions:
REMARK  status: ('A' for Active; 'I' for Inactive)
REMARK    1  A    between atoms: C_6  and  C_7 
REMARK    2  A    between atoms: C_10  and  O_11 
REMARK    3  A    between atoms: C_13  and  O_14 
REMARK    4  A    between atoms: N_15  and  C_16 
ROOT
HETATM    1  O   UNL     1       5.484  11.361  25.686  0.00  0.00    -0.245 OA
HETATM    2  C   UNL     1       4.331  11.154  25.337  0.00  0.00     0.349 A 
HETATM    3  N   UNL     1       3.722   9.912  25.330  0.00  0.00    -0.226 N 
HETATM    4  H   UNL     1       4.142   9.050  25.649  0.00  0.00     0.194 HD
HETATM    5  N   UNL     1       2.406  10.022  25.009  0.00  0.00    -0.151 NA
HETATM    6  C   UNL     1       2.216  11.301  24.785  0.00  0.00     0.172 A 
HETATM    7  N   UNL     1       3.351  12.054  24.956  0.00  0.00    -0.243 N 
ENDROOT
BRANCH   6   8
HETATM    8  C   UNL     1       0.875  11.786  24.363  0.00  0.00     0.045 A 
HETATM    9  C   UNL     1      -0.192  11.486  25.235  0.00  0.00     0.021 A 
HETATM   10  C   UNL     1      -1.500  11.888  24.950  0.00  0.00     0.037 A 
HETATM   11  C   UNL     1      -1.745  12.608  23.790  0.00  0.00     0.068 A 
HETATM   12  C   UNL     1      -0.717  12.900  22.901  0.00  0.00     0.074 A 
HETATM   13  C   UNL     1       0.584  12.453  23.168  0.00  0.00     0.082 A 
BRANCH  11  14
HETATM   14  O   UNL     1      -3.001  13.030  23.471  0.00  0.00    -0.361 OA
HETATM   15  H   UNL     1      -2.948  13.609  22.692  0.00  0.00     0.217 HD
ENDBRANCH  11  14
BRANCH  13  16
HETATM   16  O   UNL     1       1.539  12.632  22.209  0.00  0.00    -0.360 OA
HETATM   17  H   UNL     1       2.415  12.682  22.631  0.00  0.00     0.217 HD
ENDBRANCH  13  16
ENDBRANCH   6   8
BRANCH   7  18
HETATM   18  C   UNL     1       3.592  13.442  25.007  0.00  0.00     0.067 A 
HETATM   19  C   UNL     1       2.988  14.160  26.057  0.00  0.00     0.032 A 
HETATM   20  C   UNL     1       3.106  15.549  26.149  0.00  0.00     0.002 A 
HETATM   21  C   UNL     1       3.815  16.245  25.182  0.00  0.00     0.002 A 
HETATM   22  C   UNL     1       4.419  15.553  24.130  0.00  0.00     0.026 A 
HETATM   23  C   UNL     1       4.310  14.158  24.034  0.00  0.00     0.061 A 
HETATM   24 CL   UNL     1       4.958  13.420  22.613  0.00  0.00    -0.082 Cl
ENDBRANCH   7  18
TORSDOF 4
ENDMDL
MODEL 8
REMARK VINA RESULT:    -6.480      5.887      8.226
REMARK INTER + INTRA:          -8.637
REMARK INTER:                  -7.616
REMARK INTRA:                  -1.021
REMARK UNBOUND:                -1.021
REMARK  4 active torsions:
REMARK  status: ('A' for Active; 'I' for Inactive)
REMARK    1  A    between atoms: C_6  and  C_7 
REMARK    2  A    between atoms: C_10  and  O_11 
REMARK    3  A    between atoms: C_13  and  O_14 
REMARK    4  A    between atoms: N_15  and  C_16 
ROOT
HETATM    1  O   UNL     1      -3.007  11.410  22.772  0.00  0.00    -0.245 OA
HETATM    2  C   UNL     1      -1.906  11.939  22.789  0.00  0.00     0.349 A 
HETATM    3  N   UNL     1      -1.445  12.830  21.836  0.00  0.00    -0.226 N 
HETATM    4  H   UNL     1      -1.978  13.174  21.049  0.00  0.00     0.194 HD
HETATM    5  N   UNL     1      -0.236  13.337  22.194  0.00  0.00    -0.151 NA
HETATM    6  C   UNL     1       0.061  12.741  23.325  0.00  0.00     0.172 A 
HETATM    7  N   UNL     1      -0.908  11.864  23.745  0.00  0.00    -0.243 N 
ENDROOT
BRANCH   6   8
HETATM    8  C   UNL     1       1.357  13.030  23.993  0.00  0.00     0.045 A 
HETATM    9  C   UNL     1       1.284  13.796  25.176  0.00  0.00     0.021 A 
HETATM   10  C   UNL     1       2.432  14.133  25.897  0.00  0.00     0.037 A 
HETATM   11  C   UNL     1       3.666  13.693  25.442  0.00  0.00     0.068 A 
HETATM   12  C   UNL     1       3.772  12.956  24.268  0.00  0.00     0.074 A 
HETATM   13  C   UNL     1       2.622  12.661  23.523  0.00  0.00     0.082 A 
BRANCH  11  14
HETATM   14  O   UNL     1       4.815  13.989  26.113  0.00  0.00    -0.361 OA
HETATM   15  H   UNL     1       5.411  14.472  25.516  0.00  0.00     0.217 HD
ENDBRANCH  11  14
BRANCH  13  16
HETATM   16  O   UNL     1       2.775  12.061  22.307  0.00  0.00    -0.360 OA
HETATM   17  H   UNL     1       2.149  11.320  22.231  0.00  0.00     0.217 HD
ENDBRANCH  13  16
ENDBRANCH   6   8
BRANCH   7  18
HETATM   18  C   UNL     1      -1.116  11.156  24.946  0.00  0.00     0.067 A 
HETATM   19  C   UNL     1      -1.952  11.756  25.908  0.00  0.00     0.032 A 
HETATM   20  C   UNL     1      -2.158  11.168  27.158  0.00  0.00     0.002 A 
HETATM   21  C   UNL     1      -1.518   9.979  27.473  0.00  0.00     0.002 A 
HETATM   22  C   UNL     1      -0.682   9.370  26.536  0.00  0.00     0.026 A 
HETATM   23  C   UNL     1      -0.474   9.950  25.276  0.00  0.00     0.061 A 
HETATM   24 CL   UNL     1       0.698   9.200  24.254  0.00  0.00    -0.082 Cl
ENDBRANCH   7  18
TORSDOF 4
ENDMDL
MODEL 9
REMARK VINA RESULT:    -6.463      5.091      7.691
REMARK INTER + INTRA:          -8.617
REMARK INTER:                  -7.892
REMARK INTRA:                  -0.725
REMARK UNBOUND:                -1.021
REMARK  4 active torsions:
REMARK  status: ('A' for Active; 'I' for Inactive)
REMARK    1  A    between atoms: C_6  and  C_7 
REMARK    2  A    between atoms: C_10  and  O_11 
REMARK    3  A    between atoms: C_13  and  O_14 
REMARK    4  A    between atoms: N_15  and  C_16 
ROOT
HETATM    1  O   UNL     1       4.773  11.077  25.367  0.00  0.00    -0.245 OA
HETATM    2  C   UNL     1       3.593  10.910  25.098  0.00  0.00     0.349 A 
HETATM    3  N   UNL     1       2.890   9.742  25.333  0.00  0.00    -0.226 N 
HETATM    4  H   UNL     1       3.257   8.918  25.789  0.00  0.00     0.194 HD
HETATM    5  N   UNL     1       1.573   9.904  25.039  0.00  0.00    -0.151 NA
HETATM    6  C   UNL     1       1.473  11.135  24.595  0.00  0.00     0.172 A 
HETATM    7  N   UNL     1       2.669  11.807  24.592  0.00  0.00    -0.243 N 
ENDROOT
BRANCH   6   8
HETATM    8  C   UNL     1       0.156  11.649  24.134  0.00  0.00     0.045 A 
HETATM    9  C   UNL     1       0.164  12.370  22.922  0.00  0.00     0.021 A 
HETATM   10  C   UNL     1      -1.010  12.904  22.384  0.00  0.00     0.037 A 
HETATM   11  C   UNL     1      -2.208  12.706  23.054  0.00  0.00     0.068 A 
HETATM   12  C   UNL     1      -2.244  12.018  24.262  0.00  0.00     0.074 A 
HETATM   13  C   UNL     1      -1.057  11.527  24.821  0.00  0.00     0.082 A 
BRANCH  11  14
HETATM   14  O   UNL     1      -3.381  13.199  22.568  0.00  0.00    -0.361 OA
HETATM   15  H   UNL     1      -3.667  12.647  21.820  0.00  0.00     0.217 HD
ENDBRANCH  11  14
BRANCH  13  16
HETATM   16  O   UNL     1      -1.108  10.983  26.072  0.00  0.00    -0.360 OA
HETATM   17  H   UNL     1      -1.898  10.420  26.148  0.00  0.00     0.217 HD
ENDBRANCH  13  16
ENDBRANCH   6   8
BRANCH   7  18
HETATM   18  C   UNL     1       3.019  13.157  24.385  0.00  0.00     0.067 A 
HETATM   19  C   UNL     1       3.997  13.424  23.406  0.00  0.00     0.032 A 
HETATM   20  C   UNL     1       4.464  14.721  23.182  0.00  0.00     0.002 A 
HETATM   21  C   UNL     1       3.974  15.771  23.945  0.00  0.00     0.002 A 
HETATM   22  C   UNL     1       3.008  15.527  24.923  0.00  0.00     0.026 A 
HETATM   23  C   UNL     1       2.529  14.229  25.150  0.00  0.00     0.061 A 
HETATM   24 CL   UNL     1       1.454  14.015  26.485  0.00  0.00    -0.082 Cl
ENDBRANCH   7  18
TORSDOF 4
ENDMDL
