MODEL 1
REMARK VINA RESULT:    -6.915      0.000      0.000
REMARK INTER + INTRA:         -10.294
REMARK INTER:                  -9.389
REMARK INTRA:                  -0.905
REMARK UNBOUND:                -1.156
REMARK  6 active torsions:
REMARK  status: ('A' for Active; 'I' for Inactive)
REMARK    1  A    between atoms: C_2  and  C_3 
REMARK    2  A    between atoms: C_3  and  C_5 
REMARK    3  A    between atoms: C_11  and  O_12 
REMARK    4  A    between atoms: C_13  and  C_14 
REMARK       I    between atoms: C_14  and  N_16 
REMARK    5  A    between atoms: N_16  and  C_18 
REMARK    6  A    between atoms: C_21  and  N_22 
ROOT
HETATM    1  C   UNL     1       2.134   6.290  17.862  0.00  0.00     0.101 A 
HETATM    2  N   UNL     1       2.769   5.963  16.723  0.00  0.00    -0.175 NA
HETATM    3  N   UNL     1       4.068   5.992  17.062  0.00  0.00    -0.277 N 
HETATM    4  H   UNL     1       4.751   5.807  16.333  0.00  0.00     0.189 HD
HETATM    5  C   UNL     1       4.306   6.314  18.368  0.00  0.00     0.065 A 
HETATM    6  C   UNL     1       5.492   6.522  19.072  0.00  0.00     0.069 A 
HETATM    7  C   UNL     1       5.393   6.909  20.420  0.00  0.00     0.083 A 
HETATM    8  C   UNL     1       4.160   6.997  21.080  0.00  0.00     0.066 A 
HETATM    9  C   UNL     1       2.981   6.787  20.314  0.00  0.00     0.035 A 
HETATM   10  C   UNL     1       3.049   6.469  18.940  0.00  0.00     0.022 A 
ENDROOT
BRANCH   8  11
HETATM   11  C   UNL     1       3.915   7.443  22.498  0.00  0.00     0.260 C 
HETATM   12  O   UNL     1       4.276   8.607  22.713  0.00  0.00    -0.267 OA
HETATM   13  N   UNL     1       3.302   6.641  23.495  0.00  0.00    -0.318 N 
HETATM   14  C   UNL     1       3.014   5.219  23.347  0.00  0.00     0.159 C 
BRANCH  13  15
HETATM   15  C   UNL     1       3.009   7.207  24.794  0.00  0.00     0.037 A 
HETATM   16  C   UNL     1       3.799   6.917  25.908  0.00  0.00     0.032 A 
HETATM   17  C   UNL     1       3.494   7.435  27.176  0.00  0.00     0.031 A 
HETATM   18  C   UNL     1       2.387   8.261  27.403  0.00  0.00     0.030 A 
HETATM   19  C   UNL     1       1.638   8.600  26.268  0.00  0.00     0.031 A 
HETATM   20  C   UNL     1       1.942   8.092  24.990  0.00  0.00     0.032 A 
BRANCH  18  21
HETATM   21  N   UNL     1       2.024   8.664  28.670  0.00  0.00    -0.377 N 
HETATM   22  C   UNL     1       0.657   9.056  29.045  0.00  0.00     0.149 C 
HETATM   23  C   UNL     1       0.287   8.412  30.392  0.00  0.00     0.187 C 
HETATM   24  O   UNL     1       1.241   8.736  31.418  0.00  0.00    -0.388 OA
HETATM   25  C   UNL     1       2.549   8.278  31.037  0.00  0.00     0.187 C 
HETATM   26  C   UNL     1       3.020   8.926  29.724  0.00  0.00     0.149 C 
ENDBRANCH  18  21
ENDBRANCH  13  15
ENDBRANCH   8  11
BRANCH   7  27
HETATM   27  O   UNL     1       6.560   7.270  21.038  0.00  0.00    -0.360 OA
HETATM   28  H   UNL     1       7.222   6.570  20.921  0.00  0.00     0.217 HD
ENDBRANCH   7  27
BRANCH   1  29
HETATM   29  C   UNL     1       0.641   6.451  17.868  0.00  0.00     0.224 C 
HETATM   30  F   UNL     1       0.106   5.938  19.017  0.00  0.00    -0.243 F 
BRANCH  29  31
HETATM   31  C   UNL     1      -0.027   5.757  16.683  0.00  0.00     0.039 C 
HETATM   32  C   UNL     1      -0.332   4.299  16.988  0.00  0.00     0.008 C 
ENDBRANCH  29  31
ENDBRANCH   1  29
TORSDOF 6
ENDMDL
MODEL 2
REMARK VINA RESULT:    -6.853      0.757      1.171
REMARK INTER + INTRA:         -10.213
REMARK INTER:                  -9.281
REMARK INTRA:                  -0.932
REMARK UNBOUND:                -1.156
REMARK  6 active torsions:
REMARK  status: ('A' for Active; 'I' for Inactive)
REMARK    1  A    between atoms: C_2  and  C_3 
REMARK    2  A    between atoms: C_3  and  C_5 
REMARK    3  A    between atoms: C_11  and  O_12 
REMARK    4  A    between atoms: C_13  and  C_14 
REMARK       I    between atoms: C_14  and  N_16 
REMARK    5  A    between atoms: N_16  and  C_18 
REMARK    6  A    between atoms: C_21  and  N_22 
ROOT
HETATM    1  C   UNL     1       2.005   5.865  17.872  0.00  0.00     0.101 A 
HETATM    2  N   UNL     1       2.648   5.694  16.704  0.00  0.00    -0.175 NA
HETATM    3  N   UNL     1       3.923   5.996  16.994  0.00  0.00    -0.277 N 
HETATM    4  H   UNL     1       4.599   5.969  16.237  0.00  0.00     0.189 HD
HETATM    5  C   UNL     1       4.141   6.345  18.297  0.00  0.00     0.065 A 
HETATM    6  C   UNL     1       5.284   6.793  18.959  0.00  0.00     0.069 A 
HETATM    7  C   UNL     1       5.160   7.133  20.318  0.00  0.00     0.083 A 
HETATM    8  C   UNL     1       3.964   6.949  21.025  0.00  0.00     0.066 A 
HETATM    9  C   UNL     1       2.826   6.501  20.300  0.00  0.00     0.035 A 
HETATM   10  C   UNL     1       2.904   6.222  18.918  0.00  0.00     0.022 A 
ENDROOT
BRANCH   8  11
HETATM   11  C   UNL     1       3.689   7.315  22.460  0.00  0.00     0.260 C 
HETATM   12  O   UNL     1       3.712   8.536  22.666  0.00  0.00    -0.267 OA
HETATM   13  N   UNL     1       3.395   6.378  23.484  0.00  0.00    -0.318 N 
HETATM   14  C   UNL     1       3.519   4.933  23.338  0.00  0.00     0.159 C 
BRANCH  13  15
HETATM   15  C   UNL     1       3.032   6.845  24.805  0.00  0.00     0.037 A 
HETATM   16  C   UNL     1       1.731   7.260  25.097  0.00  0.00     0.032 A 
HETATM   17  C   UNL     1       1.387   7.747  26.367  0.00  0.00     0.031 A 
HETATM   18  C   UNL     1       2.317   7.854  27.407  0.00  0.00     0.030 A 
HETATM   19  C   UNL     1       3.603   7.375  27.126  0.00  0.00     0.031 A 
HETATM   20  C   UNL     1       3.956   6.875  25.856  0.00  0.00     0.032 A 
BRANCH  18  21
HETATM   21  N   UNL     1       2.001   8.449  28.611  0.00  0.00    -0.377 N 
HETATM   22  C   UNL     1       0.643   8.868  28.986  0.00  0.00     0.149 C 
HETATM   23  C   UNL     1       0.355   8.443  30.436  0.00  0.00     0.187 C 
HETATM   24  O   UNL     1       1.346   8.948  31.347  0.00  0.00    -0.388 OA
HETATM   25  C   UNL     1       2.648   8.462  30.979  0.00  0.00     0.187 C 
HETATM   26  C   UNL     1       3.038   8.899  29.557  0.00  0.00     0.149 C 
ENDBRANCH  18  21
ENDBRANCH  13  15
ENDBRANCH   8  11
BRANCH   7  27
HETATM   27  O   UNL     1       6.248   7.728  20.899  0.00  0.00    -0.360 OA
HETATM   28  H   UNL     1       6.026   8.639  21.152  0.00  0.00     0.217 HD
ENDBRANCH   7  27
BRANCH   1  29
HETATM   29  C   UNL     1       0.513   5.704  17.938  0.00  0.00     0.224 C 
HETATM   30  F   UNL     1      -0.108   6.915  17.812  0.00  0.00    -0.243 F 
BRANCH  29  31
HETATM   31  C   UNL     1       0.051   5.065  19.246  0.00  0.00     0.039 C 
HETATM   32  C   UNL     1       0.251   3.557  19.233  0.00  0.00     0.008 C 
ENDBRANCH  29  31
ENDBRANCH   1  29
TORSDOF 6
ENDMDL
MODEL 3
REMARK VINA RESULT:    -6.503      4.529     10.700
REMARK INTER + INTRA:          -9.751
REMARK INTER:                  -8.794
REMARK INTRA:                  -0.957
REMARK UNBOUND:                -1.156
REMARK  6 active torsions:
REMARK  status: ('A' for Active; 'I' for Inactive)
REMARK    1  A    between atoms: C_2  and  C_3 
REMARK    2  A    between atoms: C_3  and  C_5 
REMARK    3  A    between atoms: C_11  and  O_12 
REMARK    4  A    between atoms: C_13  and  C_14 
REMARK       I    between atoms: C_14  and  N_16 
REMARK    5  A    between atoms: N_16  and  C_18 
REMARK    6  A    between atoms: C_21  and  N_22 
ROOT
HETATM    1  C   UNL     1       3.921   6.659  22.464  0.00  0.00     0.101 A 
HETATM    2  N   UNL     1       5.140   7.065  22.860  0.00  0.00    -0.175 NA
HETATM    3  N   UNL     1       5.838   7.141  21.716  0.00  0.00    -0.277 N 
HETATM    4  H   UNL     1       6.819   7.401  21.777  0.00  0.00     0.189 HD
HETATM    5  C   UNL     1       5.129   6.814  20.595  0.00  0.00     0.065 A 
HETATM    6  C   UNL     1       5.508   6.695  19.258  0.00  0.00     0.069 A 
HETATM    7  C   UNL     1       4.532   6.272  18.338  0.00  0.00     0.083 A 
HETATM    8  C   UNL     1       3.198   6.062  18.712  0.00  0.00     0.066 A 
HETATM    9  C   UNL     1       2.867   6.185  20.089  0.00  0.00     0.035 A 
HETATM   10  C   UNL     1       3.844   6.537  21.046  0.00  0.00     0.022 A 
ENDROOT
BRANCH   8  11
HETATM   11  C   UNL     1       2.075   5.567  17.839  0.00  0.00     0.260 C 
HETATM   12  O   UNL     1       1.240   6.441  17.573  0.00  0.00    -0.267 OA
HETATM   13  N   UNL     1       1.978   4.246  17.331  0.00  0.00    -0.318 N 
HETATM   14  C   UNL     1       2.833   3.139  17.745  0.00  0.00     0.159 C 
BRANCH  13  15
HETATM   15  C   UNL     1       0.918   3.905  16.407  0.00  0.00     0.037 A 
HETATM   16  C   UNL     1       0.940   4.343  15.082  0.00  0.00     0.032 A 
HETATM   17  C   UNL     1      -0.106   4.045  14.195  0.00  0.00     0.031 A 
HETATM   18  C   UNL     1      -1.228   3.303  14.581  0.00  0.00     0.030 A 
HETATM   19  C   UNL     1      -1.212   2.812  15.893  0.00  0.00     0.031 A 
HETATM   20  C   UNL     1      -0.162   3.099  16.788  0.00  0.00     0.032 A 
BRANCH  18  21
HETATM   21  N   UNL     1      -2.307   3.121  13.742  0.00  0.00    -0.377 N 
HETATM   22  C   UNL     1      -2.940   1.817  13.494  0.00  0.00     0.149 C 
HETATM   23  C   UNL     1      -4.470   1.971  13.541  0.00  0.00     0.187 C 
HETATM   24  O   UNL     1      -4.933   2.979  12.625  0.00  0.00    -0.388 OA
HETATM   25  C   UNL     1      -4.338   4.247  12.945  0.00  0.00     0.187 C 
HETATM   26  C   UNL     1      -2.803   4.193  12.860  0.00  0.00     0.149 C 
ENDBRANCH  18  21
ENDBRANCH  13  15
ENDBRANCH   8  11
BRANCH   7  27
HETATM   27  O   UNL     1       4.968   6.000  17.069  0.00  0.00    -0.360 OA
HETATM   28  H   UNL     1       4.232   6.092  16.443  0.00  0.00     0.217 HD
ENDBRANCH   7  27
BRANCH   1  29
HETATM   29  C   UNL     1       2.859   6.369  23.485  0.00  0.00     0.224 C 
HETATM   30  F   UNL     1       2.584   7.485  24.224  0.00  0.00    -0.243 F 
BRANCH  29  31
HETATM   31  C   UNL     1       3.261   5.251  24.445  0.00  0.00     0.039 C 
HETATM   32  C   UNL     1       3.375   3.913  23.728  0.00  0.00     0.008 C 
ENDBRANCH  29  31
ENDBRANCH   1  29
TORSDOF 6
ENDMDL
MODEL 4
REMARK VINA RESULT:    -6.440      3.456     10.272
REMARK INTER + INTRA:          -9.668
REMARK INTER:                  -9.330
REMARK INTRA:                  -0.338
REMARK UNBOUND:                -1.156
REMARK  6 active torsions:
REMARK  status: ('A' for Active; 'I' for Inactive)
REMARK    1  A    between atoms: C_2  and  C_3 
REMARK    2  A    between atoms: C_3  and  C_5 
REMARK    3  A    between atoms: C_11  and  O_12 
REMARK    4  A    between atoms: C_13  and  C_14 
REMARK       I    between atoms: C_14  and  N_16 
REMARK    5  A    between atoms: N_16  and  C_18 
REMARK    6  A    between atoms: C_21  and  N_22 
ROOT
HETATM    1  C   UNL     1       1.920   7.236  30.865  0.00  0.00     0.101 A 
HETATM    2  N   UNL     1       1.255   7.773  31.903  0.00  0.00    -0.175 NA
HETATM    3  N   UNL     1       0.373   8.601  31.321  0.00  0.00    -0.277 N 
HETATM    4  H   UNL     1      -0.227   9.153  31.927  0.00  0.00     0.189 HD
HETATM    5  C   UNL     1       0.426   8.619  29.956  0.00  0.00     0.065 A 
HETATM    6  C   UNL     1      -0.254   9.386  29.011  0.00  0.00     0.069 A 
HETATM    7  C   UNL     1       0.081   9.202  27.657  0.00  0.00     0.083 A 
HETATM    8  C   UNL     1       0.993   8.223  27.243  0.00  0.00     0.066 A 
HETATM    9  C   UNL     1       1.667   7.476  28.248  0.00  0.00     0.035 A 
HETATM   10  C   UNL     1       1.404   7.692  29.618  0.00  0.00     0.022 A 
ENDROOT
BRANCH   8  11
HETATM   11  C   UNL     1       1.470   7.957  25.839  0.00  0.00     0.260 C 
HETATM   12  O   UNL     1       0.611   8.190  24.979  0.00  0.00    -0.267 OA
HETATM   13  N   UNL     1       2.778   7.518  25.506  0.00  0.00    -0.318 N 
HETATM   14  C   UNL     1       3.769   7.070  26.478  0.00  0.00     0.159 C 
BRANCH  13  15
HETATM   15  C   UNL     1       3.168   7.405  24.118  0.00  0.00     0.037 A 
HETATM   16  C   UNL     1       3.749   8.475  23.436  0.00  0.00     0.032 A 
HETATM   17  C   UNL     1       4.094   8.378  22.079  0.00  0.00     0.031 A 
HETATM   18  C   UNL     1       3.873   7.217  21.330  0.00  0.00     0.030 A 
HETATM   19  C   UNL     1       3.351   6.126  22.038  0.00  0.00     0.031 A 
HETATM   20  C   UNL     1       3.010   6.212  23.402  0.00  0.00     0.032 A 
BRANCH  18  21
HETATM   21  N   UNL     1       4.099   7.171  19.971  0.00  0.00    -0.377 N 
HETATM   22  C   UNL     1       5.103   6.305  19.337  0.00  0.00     0.149 C 
HETATM   23  C   UNL     1       4.494   5.633  18.094  0.00  0.00     0.187 C 
HETATM   24  O   UNL     1       3.958   6.601  17.174  0.00  0.00    -0.388 OA
HETATM   25  C   UNL     1       2.936   7.380  17.819  0.00  0.00     0.187 C 
HETATM   26  C   UNL     1       3.483   8.135  19.042  0.00  0.00     0.149 C 
ENDBRANCH  18  21
ENDBRANCH  13  15
ENDBRANCH   8  11
BRANCH   7  27
HETATM   27  O   UNL     1      -0.474  10.082  26.767  0.00  0.00    -0.360 OA
HETATM   28  H   UNL     1       0.229  10.555  26.293  0.00  0.00     0.217 HD
ENDBRANCH   7  27
BRANCH   1  29
HETATM   29  C   UNL     1       3.072   6.304  31.115  0.00  0.00     0.224 C 
HETATM   30  F   UNL     1       3.231   6.083  32.454  0.00  0.00    -0.243 F 
BRANCH  29  31
HETATM   31  C   UNL     1       4.390   6.843  30.563  0.00  0.00     0.039 C 
HETATM   32  C   UNL     1       5.135   5.784  29.763  0.00  0.00     0.008 C 
ENDBRANCH  29  31
ENDBRANCH   1  29
TORSDOF 6
ENDMDL
MODEL 5
REMARK VINA RESULT:    -6.402      5.870     11.072
REMARK INTER + INTRA:          -9.617
REMARK INTER:                  -8.908
REMARK INTRA:                  -0.710
REMARK UNBOUND:                -1.156
REMARK  6 active torsions:
REMARK  status: ('A' for Active; 'I' for Inactive)
REMARK    1  A    between atoms: C_2  and  C_3 
REMARK    2  A    between atoms: C_3  and  C_5 
REMARK    3  A    between atoms: C_11  and  O_12 
REMARK    4  A    between atoms: C_13  and  C_14 
REMARK       I    between atoms: C_14  and  N_16 
REMARK    5  A    between atoms: N_16  and  C_18 
REMARK    6  A    between atoms: C_21  and  N_22 
ROOT
HETATM    1  C   UNL     1       4.360   6.446  20.914  0.00  0.00     0.101 A 
HETATM    2  N   UNL     1       5.083   7.506  21.316  0.00  0.00    -0.175 NA
HETATM    3  N   UNL     1       4.618   8.513  20.561  0.00  0.00    -0.277 N 
HETATM    4  H   UNL     1       5.053   9.425  20.670  0.00  0.00     0.189 HD
HETATM    5  C   UNL     1       3.622   8.161  19.695  0.00  0.00     0.065 A 
HETATM    6  C   UNL     1       2.949   8.884  18.711  0.00  0.00     0.069 A 
HETATM    7  C   UNL     1       1.997   8.199  17.933  0.00  0.00     0.083 A 
HETATM    8  C   UNL     1       1.655   6.864  18.183  0.00  0.00     0.066 A 
HETATM    9  C   UNL     1       2.380   6.169  19.190  0.00  0.00     0.035 A 
HETATM   10  C   UNL     1       3.392   6.812  19.936  0.00  0.00     0.022 A 
ENDROOT
BRANCH   8  11
HETATM   11  C   UNL     1       0.694   6.008  17.399  0.00  0.00     0.260 C 
HETATM   12  O   UNL     1      -0.439   6.498  17.313  0.00  0.00    -0.267 OA
HETATM   13  N   UNL     1       1.037   4.777  16.782  0.00  0.00    -0.318 N 
HETATM   14  C   UNL     1       2.298   4.075  16.990  0.00  0.00     0.159 C 
BRANCH  13  15
HETATM   15  C   UNL     1       0.068   4.091  15.955  0.00  0.00     0.037 A 
HETATM   16  C   UNL     1      -0.202   4.511  14.652  0.00  0.00     0.032 A 
HETATM   17  C   UNL     1      -1.169   3.870  13.862  0.00  0.00     0.031 A 
HETATM   18  C   UNL     1      -1.919   2.785  14.329  0.00  0.00     0.030 A 
HETATM   19  C   UNL     1      -1.596   2.328  15.613  0.00  0.00     0.031 A 
HETATM   20  C   UNL     1      -0.620   2.960  16.410  0.00  0.00     0.032 A 
BRANCH  18  21
HETATM   21  N   UNL     1      -2.951   2.240  13.594  0.00  0.00    -0.377 N 
HETATM   22  C   UNL     1      -3.168   0.795  13.434  0.00  0.00     0.149 C 
HETATM   23  C   UNL     1      -4.662   0.476  13.614  0.00  0.00     0.187 C 
HETATM   24  O   UNL     1      -5.484   1.248  12.720  0.00  0.00    -0.388 OA
HETATM   25  C   UNL     1      -5.286   2.651  12.957  0.00  0.00     0.187 C 
HETATM   26  C   UNL     1      -3.821   3.065  12.736  0.00  0.00     0.149 C 
ENDBRANCH  18  21
ENDBRANCH  13  15
ENDBRANCH   8  11
BRANCH   7  27
HETATM   27  O   UNL     1       1.476   8.882  16.867  0.00  0.00    -0.360 OA
HETATM   28  H   UNL     1       1.211   8.255  16.175  0.00  0.00     0.217 HD
ENDBRANCH   7  27
BRANCH   1  29
HETATM   29  C   UNL     1       4.652   5.084  21.476  0.00  0.00     0.224 C 
HETATM   30  F   UNL     1       5.575   5.164  22.480  0.00  0.00    -0.243 F 
BRANCH  29  31
HETATM   31  C   UNL     1       5.182   4.117  20.420  0.00  0.00     0.039 C 
HETATM   32  C   UNL     1       4.189   2.999  20.136  0.00  0.00     0.008 C 
ENDBRANCH  29  31
ENDBRANCH   1  29
TORSDOF 6
ENDMDL
MODEL 6
REMARK VINA RESULT:    -6.366      3.230      5.186
REMARK INTER + INTRA:          -9.569
REMARK INTER:                  -8.402
REMARK INTRA:                  -1.167
REMARK UNBOUND:                -1.156
REMARK  6 active torsions:
REMARK  status: ('A' for Active; 'I' for Inactive)
REMARK    1  A    between atoms: C_2  and  C_3 
REMARK    2  A    between atoms: C_3  and  C_5 
REMARK    3  A    between atoms: C_11  and  O_12 
REMARK    4  A    between atoms: C_13  and  C_14 
REMARK       I    between atoms: C_14  and  N_16 
REMARK    5  A    between atoms: N_16  and  C_18 
REMARK    6  A    between atoms: C_21  and  N_22 
ROOT
HETATM    1  C   UNL     1       1.102   3.011  14.817  0.00  0.00     0.101 A 
HETATM    2  N   UNL     1       0.654   3.374  13.603  0.00  0.00    -0.175 NA
HETATM    3  N   UNL     1       0.600   4.713  13.670  0.00  0.00    -0.277 N 
HETATM    4  H   UNL     1       0.248   5.214  12.859  0.00  0.00     0.189 HD
HETATM    5  C   UNL     1       0.999   5.238  14.867  0.00  0.00     0.065 A 
HETATM    6  C   UNL     1       1.012   6.547  15.349  0.00  0.00     0.069 A 
HETATM    7  C   UNL     1       1.436   6.750  16.675  0.00  0.00     0.083 A 
HETATM    8  C   UNL     1       1.920   5.703  17.470  0.00  0.00     0.066 A 
HETATM    9  C   UNL     1       1.874   4.387  16.935  0.00  0.00     0.035 A 
HETATM   10  C   UNL     1       1.385   4.145  15.632  0.00  0.00     0.022 A 
ENDROOT
BRANCH   8  11
HETATM   11  C   UNL     1       2.357   5.780  18.909  0.00  0.00     0.260 C 
HETATM   12  O   UNL     1       1.466   5.461  19.707  0.00  0.00    -0.267 OA
HETATM   13  N   UNL     1       3.661   6.142  19.333  0.00  0.00    -0.318 N 
HETATM   14  C   UNL     1       4.692   6.684  18.455  0.00  0.00     0.159 C 
BRANCH  13  15
HETATM   15  C   UNL     1       4.008   6.072  20.736  0.00  0.00     0.037 A 
HETATM   16  C   UNL     1       4.665   4.961  21.268  0.00  0.00     0.032 A 
HETATM   17  C   UNL     1       4.969   4.875  22.635  0.00  0.00     0.031 A 
HETATM   18  C   UNL     1       4.630   5.884  23.543  0.00  0.00     0.030 A 
HETATM   19  C   UNL     1       4.030   7.024  22.992  0.00  0.00     0.031 A 
HETATM   20  C   UNL     1       3.729   7.123  21.619  0.00  0.00     0.032 A 
BRANCH  18  21
HETATM   21  N   UNL     1       4.820   5.739  24.901  0.00  0.00    -0.377 N 
HETATM   22  C   UNL     1       4.611   6.818  25.878  0.00  0.00     0.149 C 
HETATM   23  C   UNL     1       3.841   6.272  27.092  0.00  0.00     0.187 C 
HETATM   24  O   UNL     1       4.503   5.136  27.677  0.00  0.00    -0.388 OA
HETATM   25  C   UNL     1       4.627   4.084  26.705  0.00  0.00     0.187 C 
HETATM   26  C   UNL     1       5.441   4.534  25.480  0.00  0.00     0.149 C 
ENDBRANCH  18  21
ENDBRANCH  13  15
ENDBRANCH   8  11
BRANCH   7  27
HETATM   27  O   UNL     1       1.279   8.014  17.177  0.00  0.00    -0.360 OA
HETATM   28  H   UNL     1       1.969   8.596  16.821  0.00  0.00     0.217 HD
ENDBRANCH   7  27
BRANCH   1  29
HETATM   29  C   UNL     1       1.217   1.555  15.169  0.00  0.00     0.224 C 
HETATM   30  F   UNL     1       0.530   1.281  16.318  0.00  0.00    -0.243 F 
BRANCH  29  31
HETATM   31  C   UNL     1       2.666   1.114  15.366  0.00  0.00     0.039 C 
HETATM   32  C   UNL     1       2.956   0.782  16.822  0.00  0.00     0.008 C 
ENDBRANCH  29  31
ENDBRANCH   1  29
TORSDOF 6
ENDMDL
MODEL 7
REMARK VINA RESULT:    -6.320      4.313      5.044
REMARK INTER + INTRA:          -9.509
REMARK INTER:                  -8.353
REMARK INTRA:                  -1.156
REMARK UNBOUND:                -1.156
REMARK  6 active torsions:
REMARK  status: ('A' for Active; 'I' for Inactive)
REMARK    1  A    between atoms: C_2  and  C_3 
REMARK    2  A    between atoms: C_3  and  C_5 
REMARK    3  A    between atoms: C_11  and  O_12 
REMARK    4  A    between atoms: C_13  and  C_14 
REMARK       I    between atoms: C_14  and  N_16 
REMARK    5  A    between atoms: N_16  and  C_18 
REMARK    6  A    between atoms: C_21  and  N_22 
ROOT
HETATM    1  C   UNL     1       1.047   5.713  16.606  0.00  0.00     0.101 A 
HETATM    2  N   UNL     1       0.808   6.648  15.670  0.00  0.00    -0.175 NA
HETATM    3  N   UNL     1       1.408   7.746  16.155  0.00  0.00    -0.277 N 
HETATM    4  H   UNL     1       1.327   8.605  15.619  0.00  0.00     0.189 HD
HETATM    5  C   UNL     1       2.033   7.567  17.357  0.00  0.00     0.065 A 
HETATM    6  C   UNL     1       2.686   8.461  18.206  0.00  0.00     0.069 A 
HETATM    7  C   UNL     1       3.179   7.961  19.425  0.00  0.00     0.083 A 
HETATM    8  C   UNL     1       3.113   6.601  19.753  0.00  0.00     0.066 A 
HETATM    9  C   UNL     1       2.427   5.735  18.858  0.00  0.00     0.035 A 
HETATM   10  C   UNL     1       1.857   6.223  17.661  0.00  0.00     0.022 A 
ENDROOT
BRANCH   8  11
HETATM   11  C   UNL     1       3.559   5.950  21.036  0.00  0.00     0.260 C 
HETATM   12  O   UNL     1       2.643   5.813  21.858  0.00  0.00    -0.267 OA
HETATM   13  N   UNL     1       4.879   5.498  21.289  0.00  0.00    -0.318 N 
HETATM   14  C   UNL     1       6.025   5.782  20.433  0.00  0.00     0.159 C 
BRANCH  13  15
HETATM   15  C   UNL     1       5.174   4.782  22.512  0.00  0.00     0.037 A 
HETATM   16  C   UNL     1       4.912   3.417  22.635  0.00  0.00     0.032 A 
HETATM   17  C   UNL     1       5.163   2.729  23.832  0.00  0.00     0.031 A 
HETATM   18  C   UNL     1       5.679   3.363  24.968  0.00  0.00     0.030 A 
HETATM   19  C   UNL     1       6.000   4.719  24.816  0.00  0.00     0.031 A 
HETATM   20  C   UNL     1       5.760   5.415  23.614  0.00  0.00     0.032 A 
BRANCH  18  21
HETATM   21  N   UNL     1       5.805   2.710  26.175  0.00  0.00    -0.377 N 
HETATM   22  C   UNL     1       6.014   1.260  26.304  0.00  0.00     0.149 C 
HETATM   23  C   UNL     1       7.105   0.988  27.353  0.00  0.00     0.187 C 
HETATM   24  O   UNL     1       6.796   1.603  28.616  0.00  0.00    -0.388 OA
HETATM   25  C   UNL     1       6.665   3.025  28.453  0.00  0.00     0.187 C 
HETATM   26  C   UNL     1       5.546   3.383  27.461  0.00  0.00     0.149 C 
ENDBRANCH  18  21
ENDBRANCH  13  15
ENDBRANCH   8  11
BRANCH   7  27
HETATM   27  O   UNL     1       3.661   8.886  20.312  0.00  0.00    -0.360 OA
HETATM   28  H   UNL     1       4.070   9.622  19.827  0.00  0.00     0.217 HD
ENDBRANCH   7  27
BRANCH   1  29
HETATM   29  C   UNL     1       0.452   4.341  16.465  0.00  0.00     0.224 C 
HETATM   30  F   UNL     1      -0.137   3.949  17.634  0.00  0.00    -0.243 F 
BRANCH  29  31
HETATM   31  C   UNL     1       1.490   3.290  16.080  0.00  0.00     0.039 C 
HETATM   32  C   UNL     1       1.842   2.395  17.258  0.00  0.00     0.008 C 
ENDBRANCH  29  31
ENDBRANCH   1  29
TORSDOF 6
ENDMDL
MODEL 8
REMARK VINA RESULT:    -6.311      3.296      9.920
REMARK INTER + INTRA:          -9.497
REMARK INTER:                  -8.573
REMARK INTRA:                  -0.924
REMARK UNBOUND:                -1.156
REMARK  6 active torsions:
REMARK  status: ('A' for Active; 'I' for Inactive)
REMARK    1  A    between atoms: C_2  and  C_3 
REMARK    2  A    between atoms: C_3  and  C_5 
REMARK    3  A    between atoms: C_11  and  O_12 
REMARK    4  A    between atoms: C_13  and  C_14 
REMARK       I    between atoms: C_14  and  N_16 
REMARK    5  A    between atoms: N_16  and  C_18 
REMARK    6  A    between atoms: C_21  and  N_22 
ROOT
HETATM    1  C   UNL     1       1.529   7.566  26.539  0.00  0.00     0.101 A 
HETATM    2  N   UNL     1       2.223   7.947  27.626  0.00  0.00    -0.175 NA
HETATM    3  N   UNL     1       3.503   7.756  27.269  0.00  0.00    -0.277 N 
HETATM    4  H   UNL     1       4.221   7.948  27.962  0.00  0.00     0.189 HD
HETATM    5  C   UNL     1       3.674   7.278  26.000  0.00  0.00     0.065 A 
HETATM    6  C   UNL     1       4.815   6.884  25.302  0.00  0.00     0.069 A 
HETATM    7  C   UNL     1       4.641   6.370  24.004  0.00  0.00     0.083 A 
HETATM    8  C   UNL     1       3.388   6.334  23.380  0.00  0.00     0.066 A 
HETATM    9  C   UNL     1       2.256   6.736  24.140  0.00  0.00     0.035 A 
HETATM   10  C   UNL     1       2.392   7.187  25.471  0.00  0.00     0.022 A 
ENDROOT
BRANCH   8  11
HETATM   11  C   UNL     1       3.063   5.769  22.022  0.00  0.00     0.260 C 
HETATM   12  O   UNL     1       2.553   4.642  22.071  0.00  0.00    -0.267 OA
HETATM   13  N   UNL     1       3.275   6.453  20.798  0.00  0.00    -0.318 N 
HETATM   14  C   UNL     1       4.020   7.700  20.669  0.00  0.00     0.159 C 
BRANCH  13  15
HETATM   15  C   UNL     1       2.820   5.865  19.556  0.00  0.00     0.037 A 
HETATM   16  C   UNL     1       1.683   6.340  18.901  0.00  0.00     0.032 A 
HETATM   17  C   UNL     1       1.220   5.748  17.716  0.00  0.00     0.031 A 
HETATM   18  C   UNL     1       1.857   4.650  17.127  0.00  0.00     0.030 A 
HETATM   19  C   UNL     1       3.035   4.221  17.754  0.00  0.00     0.031 A 
HETATM   20  C   UNL     1       3.513   4.816  18.939  0.00  0.00     0.032 A 
BRANCH  18  21
HETATM   21  N   UNL     1       1.327   3.997  16.035  0.00  0.00    -0.377 N 
HETATM   22  C   UNL     1       0.547   4.663  14.982  0.00  0.00     0.149 C 
HETATM   23  C   UNL     1       1.014   4.166  13.603  0.00  0.00     0.187 C 
HETATM   24  O   UNL     1       0.944   2.733  13.501  0.00  0.00    -0.388 OA
HETATM   25  C   UNL     1       1.771   2.127  14.508  0.00  0.00     0.187 C 
HETATM   26  C   UNL     1       1.328   2.527  15.925  0.00  0.00     0.149 C 
ENDBRANCH  18  21
ENDBRANCH  13  15
ENDBRANCH   8  11
BRANCH   7  27
HETATM   27  O   UNL     1       5.751   5.833  23.408  0.00  0.00    -0.360 OA
HETATM   28  H   UNL     1       6.099   6.454  22.747  0.00  0.00     0.217 HD
ENDBRANCH   7  27
BRANCH   1  29
HETATM   29  C   UNL     1       0.028   7.552  26.577  0.00  0.00     0.224 C 
HETATM   30  F   UNL     1      -0.458   8.788  26.897  0.00  0.00    -0.243 F 
BRANCH  29  31
HETATM   31  C   UNL     1      -0.523   6.549  27.588  0.00  0.00     0.039 C 
HETATM   32  C   UNL     1      -0.812   5.203  26.939  0.00  0.00     0.008 C 
ENDBRANCH  29  31
ENDBRANCH   1  29
TORSDOF 6
ENDMDL
MODEL 9
REMARK VINA RESULT:    -6.285      3.655      9.135
REMARK INTER + INTRA:          -9.462
REMARK INTER:                  -8.538
REMARK INTRA:                  -0.924
REMARK UNBOUND:                -1.156
REMARK  6 active torsions:
REMARK  status: ('A' for Active; 'I' for Inactive)
REMARK    1  A    between atoms: C_2  and  C_3 
REMARK    2  A    between atoms: C_3  and  C_5 
REMARK    3  A    between atoms: C_11  and  O_12 
REMARK    4  A    between atoms: C_13  and  C_14 
REMARK       I    between atoms: C_14  and  N_16 
REMARK    5  A    between atoms: N_16  and  C_18 
REMARK    6  A    between atoms: C_21  and  N_22 
ROOT
HETATM    1  C   UNL     1      -0.740  11.229  25.776  0.00  0.00     0.101 A 
HETATM    2  N   UNL     1      -1.228  11.824  26.878  0.00  0.00    -0.175 NA
HETATM    3  N   UNL     1      -0.856  11.005  27.874  0.00  0.00    -0.277 N 
HETATM    4  H   UNL     1      -1.152  11.243  28.817  0.00  0.00     0.189 HD
HETATM    5  C   UNL     1      -0.142   9.912  27.473  0.00  0.00     0.065 A 
HETATM    6  C   UNL     1       0.346   8.812  28.178  0.00  0.00     0.069 A 
HETATM    7  C   UNL     1       1.003   7.806  27.446  0.00  0.00     0.083 A 
HETATM    8  C   UNL     1       1.252   7.928  26.073  0.00  0.00     0.066 A 
HETATM    9  C   UNL     1       0.723   9.063  25.400  0.00  0.00     0.035 A 
HETATM   10  C   UNL     1      -0.004  10.052  26.098  0.00  0.00     0.022 A 
ENDROOT
BRANCH   8  11
HETATM   11  C   UNL     1       1.898   6.909  25.171  0.00  0.00     0.260 C 
HETATM   12  O   UNL     1       1.421   5.774  25.295  0.00  0.00    -0.267 OA
HETATM   13  N   UNL     1       2.927   7.203  24.238  0.00  0.00    -0.318 N 
HETATM   14  C   UNL     1       3.637   8.474  24.168  0.00  0.00     0.159 C 
BRANCH  13  15
HETATM   15  C   UNL     1       3.398   6.173  23.338  0.00  0.00     0.037 A 
HETATM   16  C   UNL     1       2.930   6.085  22.026  0.00  0.00     0.032 A 
HETATM   17  C   UNL     1       3.358   5.064  21.163  0.00  0.00     0.031 A 
HETATM   18  C   UNL     1       4.266   4.077  21.562  0.00  0.00     0.030 A 
HETATM   19  C   UNL     1       4.780   4.210  22.858  0.00  0.00     0.031 A 
HETATM   20  C   UNL     1       4.363   5.237  23.728  0.00  0.00     0.032 A 
BRANCH  18  21
HETATM   21  N   UNL     1       4.585   3.008  20.751  0.00  0.00    -0.377 N 
HETATM   22  C   UNL     1       4.612   1.612  21.209  0.00  0.00     0.149 C 
HETATM   23  C   UNL     1       3.922   0.714  20.168  0.00  0.00     0.187 C 
HETATM   24  O   UNL     1       4.507   0.865  18.863  0.00  0.00    -0.388 OA
HETATM   25  C   UNL     1       4.401   2.231  18.429  0.00  0.00     0.187 C 
HETATM   26  C   UNL     1       5.123   3.191  19.391  0.00  0.00     0.149 C 
ENDBRANCH  18  21
ENDBRANCH  13  15
ENDBRANCH   8  11
BRANCH   7  27
HETATM   27  O   UNL     1       1.320   6.663  28.130  0.00  0.00    -0.360 OA
HETATM   28  H   UNL     1       2.187   6.766  28.555  0.00  0.00     0.217 HD
ENDBRANCH   7  27
BRANCH   1  29
HETATM   29  C   UNL     1      -1.030  11.808  24.421  0.00  0.00     0.224 C 
HETATM   30  F   UNL     1      -1.507  10.845  23.577  0.00  0.00    -0.243 F 
BRANCH  29  31
HETATM   31  C   UNL     1       0.205  12.435  23.777  0.00  0.00     0.039 C 
HETATM   32  C   UNL     1       0.642  13.692  24.515  0.00  0.00     0.008 C 
ENDBRANCH  29  31
ENDBRANCH   1  29
TORSDOF 6
ENDMDL
