MODEL 1
REMARK VINA RESULT:    -8.005      0.000      0.000
REMARK INTER + INTRA:         -11.896
REMARK INTER:                 -10.869
REMARK INTRA:                  -1.026
REMARK UNBOUND:                -0.850
REMARK  7 active torsions:
REMARK  status: ('A' for Active; 'I' for Inactive)
REMARK    1  A    between atoms: C_2  and  C_3 
REMARK    2  A    between atoms: C_3  and  C_4 
REMARK    3  A    between atoms: C_4  and  C_5 
REMARK    4  A    between atoms: C_12  and  C_16 
REMARK    5  A    between atoms: C_13  and  O_15 
REMARK       I    between atoms: C_16  and  N_18 
REMARK    6  A    between atoms: N_18  and  C_20 
REMARK    7  A    between atoms: C_23  and  N_26 
ROOT
HETATM    1  C   UNL     1      -0.242  17.094  20.596  0.00  0.00     0.067 A 
HETATM    2  N   UNL     1      -0.938  18.039  19.946  0.00  0.00    -0.178 NA
HETATM    3  N   UNL     1      -2.143  17.485  19.756  0.00  0.00    -0.277 N 
HETATM    4  H   UNL     1      -2.847  18.027  19.267  0.00  0.00     0.189 HD
HETATM    5  C   UNL     1      -1.031  15.927  20.831  0.00  0.00     0.019 A 
HETATM    6  C   UNL     1      -2.244  16.200  20.211  0.00  0.00     0.065 A 
HETATM    7  C   UNL     1      -0.862  14.665  21.441  0.00  0.00     0.035 C 
HETATM    8  C   UNL     1      -1.878  13.676  21.352  0.00  0.00     0.066 C 
HETATM    9  C   UNL     1      -3.017  13.972  20.593  0.00  0.00     0.083 C 
HETATM   10  C   UNL     1      -3.265  15.255  20.088  0.00  0.00     0.069 C 
ENDROOT
BRANCH   8  11
HETATM   11  C   UNL     1      -1.545  12.345  21.965  0.00  0.00     0.260 C 
HETATM   12  O   UNL     1      -1.668  11.405  21.172  0.00  0.00    -0.267 OA
HETATM   13  N   UNL     1      -1.123  12.181  23.313  0.00  0.00    -0.318 N 
HETATM   14  C   UNL     1      -1.179  13.251  24.310  0.00  0.00     0.159 C 
BRANCH  13  15
HETATM   15  C   UNL     1      -0.640  10.889  23.790  0.00  0.00     0.037 A 
HETATM   16  C   UNL     1       0.563  10.348  23.330  0.00  0.00     0.032 A 
HETATM   17  C   UNL     1       1.025   9.092  23.766  0.00  0.00     0.031 A 
HETATM   18  C   UNL     1       0.318   8.309  24.681  0.00  0.00     0.030 A 
HETATM   19  C   UNL     1      -0.843   8.879  25.209  0.00  0.00     0.031 A 
HETATM   20  C   UNL     1      -1.317  10.140  24.768  0.00  0.00     0.032 A 
BRANCH  18  21
HETATM   21  N   UNL     1       0.779   7.050  25.009  0.00  0.00    -0.377 N 
HETATM   22  C   UNL     1       1.946   6.769  25.859  0.00  0.00     0.149 C 
HETATM   23  C   UNL     1       1.534   6.025  27.140  0.00  0.00     0.187 C 
HETATM   24  O   UNL     1       0.743   4.858  26.859  0.00  0.00    -0.388 OA
HETATM   25  C   UNL     1      -0.443   5.229  26.138  0.00  0.00     0.187 C 
HETATM   26  C   UNL     1      -0.100   5.886  24.792  0.00  0.00     0.149 C 
ENDBRANCH  18  21
ENDBRANCH  13  15
ENDBRANCH   8  11
BRANCH   9  27
HETATM   27  O   UNL     1      -3.932  13.033  20.202  0.00  0.00    -0.360 OA
HETATM   28  H   UNL     1      -3.926  12.330  20.881  0.00  0.00     0.217 HD
ENDBRANCH   9  27
BRANCH   1  29
HETATM   29  C   UNL     1       1.204  17.334  20.899  0.00  0.00     0.062 C 
BRANCH  29  30
HETATM   30  C   UNL     1       2.140  16.432  20.089  0.00  0.00     0.006 C 
BRANCH  30  31
HETATM   31  C   UNL     1       3.085  15.634  20.988  0.00  0.00    -0.004 C 
HETATM   32  C   UNL     1       2.855  14.138  20.832  0.00  0.00     0.005 C 
ENDBRANCH  30  31
ENDBRANCH  29  30
ENDBRANCH   1  29
TORSDOF 7
ENDMDL
MODEL 2
REMARK VINA RESULT:    -8.002      2.255      2.700
REMARK INTER + INTRA:         -11.893
REMARK INTER:                 -10.705
REMARK INTRA:                  -1.188
REMARK UNBOUND:                -0.850
REMARK  7 active torsions:
REMARK  status: ('A' for Active; 'I' for Inactive)
REMARK    1  A    between atoms: C_2  and  C_3 
REMARK    2  A    between atoms: C_3  and  C_4 
REMARK    3  A    between atoms: C_4  and  C_5 
REMARK    4  A    between atoms: C_12  and  C_16 
REMARK    5  A    between atoms: C_13  and  O_15 
REMARK       I    between atoms: C_16  and  N_18 
REMARK    6  A    between atoms: N_18  and  C_20 
REMARK    7  A    between atoms: C_23  and  N_26 
ROOT
HETATM    1  C   UNL     1      -1.282  16.695  20.490  0.00  0.00     0.067 A 
HETATM    2  N   UNL     1      -1.948  17.487  19.636  0.00  0.00    -0.178 NA
HETATM    3  N   UNL     1      -3.230  17.125  19.786  0.00  0.00    -0.277 N 
HETATM    4  H   UNL     1      -3.929  17.595  19.222  0.00  0.00     0.189 HD
HETATM    5  C   UNL     1      -2.165  15.828  21.201  0.00  0.00     0.019 A 
HETATM    6  C   UNL     1      -3.419  16.096  20.665  0.00  0.00     0.065 A 
HETATM    7  C   UNL     1      -2.061  14.823  22.187  0.00  0.00     0.035 C 
HETATM    8  C   UNL     1      -3.197  14.055  22.560  0.00  0.00     0.066 C 
HETATM    9  C   UNL     1      -4.398  14.286  21.879  0.00  0.00     0.083 C 
HETATM   10  C   UNL     1      -4.559  15.359  20.993  0.00  0.00     0.069 C 
ENDROOT
BRANCH   8  11
HETATM   11  C   UNL     1      -2.941  12.957  23.554  0.00  0.00     0.260 C 
HETATM   12  O   UNL     1      -3.202  11.834  23.110  0.00  0.00    -0.267 OA
HETATM   13  N   UNL     1      -2.442  13.182  24.867  0.00  0.00    -0.318 N 
HETATM   14  C   UNL     1      -2.332  14.512  25.469  0.00  0.00     0.159 C 
BRANCH  13  15
HETATM   15  C   UNL     1      -2.043  12.063  25.714  0.00  0.00     0.037 A 
HETATM   16  C   UNL     1      -0.879  11.335  25.457  0.00  0.00     0.032 A 
HETATM   17  C   UNL     1      -0.499  10.240  26.254  0.00  0.00     0.031 A 
HETATM   18  C   UNL     1      -1.253   9.808  27.346  0.00  0.00     0.030 A 
HETATM   19  C   UNL     1      -2.374  10.581  27.661  0.00  0.00     0.031 A 
HETATM   20  C   UNL     1      -2.766  11.681  26.857  0.00  0.00     0.032 A 
BRANCH  18  21
HETATM   21  N   UNL     1      -0.875   8.678  28.041  0.00  0.00    -0.377 N 
HETATM   22  C   UNL     1      -0.553   7.377  27.434  0.00  0.00     0.149 C 
HETATM   23  C   UNL     1       0.915   6.993  27.690  0.00  0.00     0.187 C 
HETATM   24  O   UNL     1       1.260   7.070  29.084  0.00  0.00    -0.388 OA
HETATM   25  C   UNL     1       1.038   8.402  29.574  0.00  0.00     0.187 C 
HETATM   26  C   UNL     1      -0.437   8.811  29.443  0.00  0.00     0.149 C 
ENDBRANCH  18  21
ENDBRANCH  13  15
ENDBRANCH   8  11
BRANCH   9  27
HETATM   27  O   UNL     1      -5.479  13.449  21.942  0.00  0.00    -0.360 OA
HETATM   28  H   UNL     1      -5.991  13.706  22.735  0.00  0.00     0.217 HD
ENDBRANCH   9  27
BRANCH   1  29
HETATM   29  C   UNL     1       0.213  16.761  20.527  0.00  0.00     0.062 C 
BRANCH  29  30
HETATM   30  C   UNL     1       0.756  17.185  21.895  0.00  0.00     0.006 C 
BRANCH  30  31
HETATM   31  C   UNL     1       1.565  16.070  22.559  0.00  0.00    -0.004 C 
HETATM   32  C   UNL     1       1.021  15.751  23.944  0.00  0.00     0.005 C 
ENDBRANCH  30  31
ENDBRANCH  29  30
ENDBRANCH   1  29
TORSDOF 7
ENDMDL
MODEL 3
REMARK VINA RESULT:    -7.776      1.665      3.525
REMARK INTER + INTRA:         -11.580
REMARK INTER:                 -10.329
REMARK INTRA:                  -1.252
REMARK UNBOUND:                -0.850
REMARK  7 active torsions:
REMARK  status: ('A' for Active; 'I' for Inactive)
REMARK    1  A    between atoms: C_2  and  C_3 
REMARK    2  A    between atoms: C_3  and  C_4 
REMARK    3  A    between atoms: C_4  and  C_5 
REMARK    4  A    between atoms: C_12  and  C_16 
REMARK    5  A    between atoms: C_13  and  O_15 
REMARK       I    between atoms: C_16  and  N_18 
REMARK    6  A    between atoms: N_18  and  C_20 
REMARK    7  A    between atoms: C_23  and  N_26 
ROOT
HETATM    1  C   UNL     1      -2.203  16.719  20.295  0.00  0.00     0.067 A 
HETATM    2  N   UNL     1      -1.725  17.875  19.808  0.00  0.00    -0.178 NA
HETATM    3  N   UNL     1      -0.405  17.800  20.026  0.00  0.00    -0.277 N 
HETATM    4  H   UNL     1       0.172  18.583  19.740  0.00  0.00     0.189 HD
HETATM    5  C   UNL     1      -1.159  15.896  20.817  0.00  0.00     0.019 A 
HETATM    6  C   UNL     1      -0.011  16.667  20.680  0.00  0.00     0.065 A 
HETATM    7  C   UNL     1      -1.044  14.628  21.427  0.00  0.00     0.035 C 
HETATM    8  C   UNL     1       0.200  14.191  21.958  0.00  0.00     0.066 C 
HETATM    9  C   UNL     1       1.282  15.077  21.909  0.00  0.00     0.083 C 
HETATM   10  C   UNL     1       1.229  16.283  21.196  0.00  0.00     0.069 C 
ENDROOT
BRANCH   8  11
HETATM   11  C   UNL     1       0.175  12.863  22.661  0.00  0.00     0.260 C 
HETATM   12  O   UNL     1       0.314  11.907  21.890  0.00  0.00    -0.267 OA
HETATM   13  N   UNL     1       0.016  12.717  24.067  0.00  0.00    -0.318 N 
HETATM   14  C   UNL     1      -0.359  13.819  24.953  0.00  0.00     0.159 C 
BRANCH  13  15
HETATM   15  C   UNL     1       0.185  11.415  24.703  0.00  0.00     0.037 A 
HETATM   16  C   UNL     1      -0.914  10.639  25.077  0.00  0.00     0.032 A 
HETATM   17  C   UNL     1      -0.760   9.393  25.713  0.00  0.00     0.031 A 
HETATM   18  C   UNL     1       0.492   8.852  26.010  0.00  0.00     0.030 A 
HETATM   19  C   UNL     1       1.597   9.581  25.565  0.00  0.00     0.031 A 
HETATM   20  C   UNL     1       1.448  10.841  24.931  0.00  0.00     0.032 A 
BRANCH  18  21
HETATM   21  N   UNL     1       0.581   7.665  26.708  0.00  0.00    -0.377 N 
HETATM   22  C   UNL     1      -0.559   6.818  27.091  0.00  0.00     0.149 C 
HETATM   23  C   UNL     1      -0.483   5.441  26.411  0.00  0.00     0.187 C 
HETATM   24  O   UNL     1       0.790   4.805  26.617  0.00  0.00    -0.388 OA
HETATM   25  C   UNL     1       1.845   5.634  26.103  0.00  0.00     0.187 C 
HETATM   26  C   UNL     1       1.889   6.993  26.818  0.00  0.00     0.149 C 
ENDBRANCH  18  21
ENDBRANCH  13  15
ENDBRANCH   8  11
BRANCH   9  27
HETATM   27  O   UNL     1       2.442  14.898  22.613  0.00  0.00    -0.360 OA
HETATM   28  H   UNL     1       2.764  13.998  22.405  0.00  0.00     0.217 HD
ENDBRANCH   9  27
BRANCH   1  29
HETATM   29  C   UNL     1      -3.682  16.489  20.302  0.00  0.00     0.062 C 
BRANCH  29  30
HETATM   30  C   UNL     1      -4.118  15.391  19.327  0.00  0.00     0.006 C 
BRANCH  30  31
HETATM   31  C   UNL     1      -4.477  14.093  20.051  0.00  0.00    -0.004 C 
HETATM   32  C   UNL     1      -4.903  14.366  21.485  0.00  0.00     0.005 C 
ENDBRANCH  30  31
ENDBRANCH  29  30
ENDBRANCH   1  29
TORSDOF 7
ENDMDL
MODEL 4
REMARK VINA RESULT:    -7.746      2.412      2.947
REMARK INTER + INTRA:         -11.539
REMARK INTER:                 -10.686
REMARK INTRA:                  -0.854
REMARK UNBOUND:                -0.850
REMARK  7 active torsions:
REMARK  status: ('A' for Active; 'I' for Inactive)
REMARK    1  A    between atoms: C_2  and  C_3 
REMARK    2  A    between atoms: C_3  and  C_4 
REMARK    3  A    between atoms: C_4  and  C_5 
REMARK    4  A    between atoms: C_12  and  C_16 
REMARK    5  A    between atoms: C_13  and  O_15 
REMARK       I    between atoms: C_16  and  N_18 
REMARK    6  A    between atoms: N_18  and  C_20 
REMARK    7  A    between atoms: C_23  and  N_26 
ROOT
HETATM    1  C   UNL     1      -2.110  16.570  20.461  0.00  0.00     0.067 A 
HETATM    2  N   UNL     1      -3.102  17.012  19.672  0.00  0.00    -0.178 NA
HETATM    3  N   UNL     1      -4.185  16.354  20.109  0.00  0.00    -0.277 N 
HETATM    4  H   UNL     1      -5.069  16.528  19.646  0.00  0.00     0.189 HD
HETATM    5  C   UNL     1      -2.583  15.626  21.422  0.00  0.00     0.019 A 
HETATM    6  C   UNL     1      -3.929  15.466  21.116  0.00  0.00     0.065 A 
HETATM    7  C   UNL     1      -2.041  14.854  22.472  0.00  0.00     0.035 C 
HETATM    8  C   UNL     1      -2.834  13.884  23.142  0.00  0.00     0.066 C 
HETATM    9  C   UNL     1      -4.142  13.680  22.688  0.00  0.00     0.083 C 
HETATM   10  C   UNL     1      -4.743  14.518  21.739  0.00  0.00     0.069 C 
ENDROOT
BRANCH   8  11
HETATM   11  C   UNL     1      -2.120  13.066  24.181  0.00  0.00     0.260 C 
HETATM   12  O   UNL     1      -1.909  13.692  25.226  0.00  0.00    -0.267 OA
HETATM   13  N   UNL     1      -1.733  11.711  23.990  0.00  0.00    -0.318 N 
HETATM   14  C   UNL     1      -1.787  11.034  22.694  0.00  0.00     0.159 C 
BRANCH  13  15
HETATM   15  C   UNL     1      -1.210  10.923  25.101  0.00  0.00     0.037 A 
HETATM   16  C   UNL     1       0.101  10.443  25.100  0.00  0.00     0.032 A 
HETATM   17  C   UNL     1       0.606   9.662  26.156  0.00  0.00     0.031 A 
HETATM   18  C   UNL     1      -0.164   9.316  27.268  0.00  0.00     0.030 A 
HETATM   19  C   UNL     1      -1.450   9.861  27.318  0.00  0.00     0.031 A 
HETATM   20  C   UNL     1      -1.966  10.642  26.253  0.00  0.00     0.032 A 
BRANCH  18  21
HETATM   21  N   UNL     1       0.357   8.480  28.233  0.00  0.00    -0.377 N 
HETATM   22  C   UNL     1       1.610   7.718  28.110  0.00  0.00     0.149 C 
HETATM   23  C   UNL     1       2.643   8.173  29.155  0.00  0.00     0.187 C 
HETATM   24  O   UNL     1       2.104   8.166  30.488  0.00  0.00    -0.388 OA
HETATM   25  C   UNL     1       0.960   9.031  30.562  0.00  0.00     0.187 C 
HETATM   26  C   UNL     1      -0.157   8.568  29.613  0.00  0.00     0.149 C 
ENDBRANCH  18  21
ENDBRANCH  13  15
ENDBRANCH   8  11
BRANCH   9  27
HETATM   27  O   UNL     1      -4.913  12.610  23.054  0.00  0.00    -0.360 OA
HETATM   28  H   UNL     1      -4.607  11.846  22.526  0.00  0.00     0.217 HD
ENDBRANCH   9  27
BRANCH   1  29
HETATM   29  C   UNL     1      -0.710  17.031  20.196  0.00  0.00     0.062 C 
BRANCH  29  30
HETATM   30  C   UNL     1       0.005  17.514  21.461  0.00  0.00     0.006 C 
BRANCH  30  31
HETATM   31  C   UNL     1       1.312  16.759  21.703  0.00  0.00    -0.004 C 
HETATM   32  C   UNL     1       2.315  17.032  20.592  0.00  0.00     0.005 C 
ENDBRANCH  30  31
ENDBRANCH  29  30
ENDBRANCH   1  29
TORSDOF 7
ENDMDL
MODEL 5
REMARK VINA RESULT:    -7.657      1.819      2.473
REMARK INTER + INTRA:         -11.416
REMARK INTER:                 -10.362
REMARK INTRA:                  -1.054
REMARK UNBOUND:                -0.850
REMARK  7 active torsions:
REMARK  status: ('A' for Active; 'I' for Inactive)
REMARK    1  A    between atoms: C_2  and  C_3 
REMARK    2  A    between atoms: C_3  and  C_4 
REMARK    3  A    between atoms: C_4  and  C_5 
REMARK    4  A    between atoms: C_12  and  C_16 
REMARK    5  A    between atoms: C_13  and  O_15 
REMARK       I    between atoms: C_16  and  N_18 
REMARK    6  A    between atoms: N_18  and  C_20 
REMARK    7  A    between atoms: C_23  and  N_26 
ROOT
HETATM    1  C   UNL     1      -2.071  16.741  20.220  0.00  0.00     0.067 A 
HETATM    2  N   UNL     1      -3.154  17.265  19.625  0.00  0.00    -0.178 NA
HETATM    3  N   UNL     1      -4.184  16.634  20.205  0.00  0.00    -0.277 N 
HETATM    4  H   UNL     1      -5.121  16.869  19.901  0.00  0.00     0.189 HD
HETATM    5  C   UNL     1      -2.430  15.771  21.204  0.00  0.00     0.019 A 
HETATM    6  C   UNL     1      -3.814  15.685  21.116  0.00  0.00     0.065 A 
HETATM    7  C   UNL     1      -1.765  14.923  22.117  0.00  0.00     0.035 C 
HETATM    8  C   UNL     1      -2.487  13.956  22.865  0.00  0.00     0.066 C 
HETATM    9  C   UNL     1      -3.860  13.832  22.624  0.00  0.00     0.083 C 
HETATM   10  C   UNL     1      -4.563  14.742  21.823  0.00  0.00     0.069 C 
ENDROOT
BRANCH   8  11
HETATM   11  C   UNL     1      -1.657  13.056  23.736  0.00  0.00     0.260 C 
HETATM   12  O   UNL     1      -1.331  13.586  24.804  0.00  0.00    -0.267 OA
HETATM   13  N   UNL     1      -1.290  11.730  23.377  0.00  0.00    -0.318 N 
HETATM   14  C   UNL     1      -1.489  11.174  22.038  0.00  0.00     0.159 C 
BRANCH  13  15
HETATM   15  C   UNL     1      -0.642  10.849  24.344  0.00  0.00     0.037 A 
HETATM   16  C   UNL     1      -1.386  10.063  25.226  0.00  0.00     0.032 A 
HETATM   17  C   UNL     1      -0.770   9.230  26.177  0.00  0.00     0.031 A 
HETATM   18  C   UNL     1       0.617   9.132  26.303  0.00  0.00     0.030 A 
HETATM   19  C   UNL     1       1.370   9.850  25.370  0.00  0.00     0.031 A 
HETATM   20  C   UNL     1       0.754  10.697  24.414  0.00  0.00     0.032 A 
BRANCH  18  21
HETATM   21  N   UNL     1       1.164   8.361  27.308  0.00  0.00    -0.377 N 
HETATM   22  C   UNL     1       0.406   7.489  28.217  0.00  0.00     0.149 C 
HETATM   23  C   UNL     1       0.801   6.014  28.032  0.00  0.00     0.187 C 
HETATM   24  O   UNL     1       2.223   5.820  28.115  0.00  0.00    -0.388 OA
HETATM   25  C   UNL     1       2.888   6.607  27.113  0.00  0.00     0.187 C 
HETATM   26  C   UNL     1       2.617   8.107  27.306  0.00  0.00     0.149 C 
ENDBRANCH  18  21
ENDBRANCH  13  15
ENDBRANCH   8  11
BRANCH   9  27
HETATM   27  O   UNL     1      -4.616  12.779  23.064  0.00  0.00    -0.360 OA
HETATM   28  H   UNL     1      -5.542  13.091  23.105  0.00  0.00     0.217 HD
ENDBRANCH   9  27
BRANCH   1  29
HETATM   29  C   UNL     1      -0.711  17.154  19.750  0.00  0.00     0.062 C 
BRANCH  29  30
HETATM   30  C   UNL     1       0.228  17.526  20.901  0.00  0.00     0.006 C 
BRANCH  30  31
HETATM   31  C   UNL     1       1.516  16.703  20.877  0.00  0.00    -0.004 C 
HETATM   32  C   UNL     1       2.404  17.042  22.065  0.00  0.00     0.005 C 
ENDBRANCH  30  31
ENDBRANCH  29  30
ENDBRANCH   1  29
TORSDOF 7
ENDMDL
MODEL 6
REMARK VINA RESULT:    -7.419      1.460      2.178
REMARK INTER + INTRA:         -11.088
REMARK INTER:                 -10.238
REMARK INTRA:                  -0.850
REMARK UNBOUND:                -0.850
REMARK  7 active torsions:
REMARK  status: ('A' for Active; 'I' for Inactive)
REMARK    1  A    between atoms: C_2  and  C_3 
REMARK    2  A    between atoms: C_3  and  C_4 
REMARK    3  A    between atoms: C_4  and  C_5 
REMARK    4  A    between atoms: C_12  and  C_16 
REMARK    5  A    between atoms: C_13  and  O_15 
REMARK       I    between atoms: C_16  and  N_18 
REMARK    6  A    between atoms: N_18  and  C_20 
REMARK    7  A    between atoms: C_23  and  N_26 
ROOT
HETATM    1  C   UNL     1       2.108  16.355  20.455  0.00  0.00     0.067 A 
HETATM    2  N   UNL     1       1.793  17.590  20.033  0.00  0.00    -0.178 NA
HETATM    3  N   UNL     1       0.500  17.725  20.356  0.00  0.00    -0.277 N 
HETATM    4  H   UNL     1       0.037  18.596  20.121  0.00  0.00     0.189 HD
HETATM    5  C   UNL     1       0.993  15.708  21.068  0.00  0.00     0.019 A 
HETATM    6  C   UNL     1      -0.053  16.611  20.925  0.00  0.00     0.065 A 
HETATM    7  C   UNL     1       0.722  14.463  21.677  0.00  0.00     0.035 C 
HETATM    8  C   UNL     1      -0.602  14.118  22.060  0.00  0.00     0.066 C 
HETATM    9  C   UNL     1      -1.628  15.021  21.759  0.00  0.00     0.083 C 
HETATM   10  C   UNL     1      -1.370  16.311  21.276  0.00  0.00     0.069 C 
ENDROOT
BRANCH   8  11
HETATM   11  C   UNL     1      -0.776  12.733  22.617  0.00  0.00     0.260 C 
HETATM   12  O   UNL     1      -1.450  12.000  21.883  0.00  0.00    -0.267 OA
HETATM   13  N   UNL     1      -0.220  12.304  23.853  0.00  0.00    -0.318 N 
HETATM   14  C   UNL     1       0.393  13.216  24.820  0.00  0.00     0.159 C 
BRANCH  13  15
HETATM   15  C   UNL     1      -0.272  10.899  24.245  0.00  0.00     0.037 A 
HETATM   16  C   UNL     1      -1.089  10.464  25.291  0.00  0.00     0.032 A 
HETATM   17  C   UNL     1      -1.127   9.116  25.690  0.00  0.00     0.031 A 
HETATM   18  C   UNL     1      -0.358   8.128  25.072  0.00  0.00     0.030 A 
HETATM   19  C   UNL     1       0.398   8.538  23.971  0.00  0.00     0.031 A 
HETATM   20  C   UNL     1       0.446   9.897  23.569  0.00  0.00     0.032 A 
BRANCH  18  21
HETATM   21  N   UNL     1      -0.375   6.837  25.560  0.00  0.00    -0.377 N 
HETATM   22  C   UNL     1       0.001   5.637  24.797  0.00  0.00     0.149 C 
HETATM   23  C   UNL     1       1.231   4.949  25.413  0.00  0.00     0.187 C 
HETATM   24  O   UNL     1       1.065   4.698  26.818  0.00  0.00    -0.388 OA
HETATM   25  C   UNL     1       0.828   5.933  27.515  0.00  0.00     0.187 C 
HETATM   26  C   UNL     1      -0.452   6.622  27.017  0.00  0.00     0.149 C 
ENDBRANCH  18  21
ENDBRANCH  13  15
ENDBRANCH   8  11
BRANCH   9  27
HETATM   27  O   UNL     1      -2.958  14.706  21.822  0.00  0.00    -0.360 OA
HETATM   28  H   UNL     1      -3.454  15.523  21.614  0.00  0.00     0.217 HD
ENDBRANCH   9  27
BRANCH   1  29
HETATM   29  C   UNL     1       3.477  15.818  20.173  0.00  0.00     0.062 C 
BRANCH  29  30
HETATM   30  C   UNL     1       4.138  15.197  21.408  0.00  0.00     0.006 C 
BRANCH  30  31
HETATM   31  C   UNL     1       5.659  15.135  21.272  0.00  0.00    -0.004 C 
HETATM   32  C   UNL     1       6.324  14.989  22.633  0.00  0.00     0.005 C 
ENDBRANCH  30  31
ENDBRANCH  29  30
ENDBRANCH   1  29
TORSDOF 7
ENDMDL
MODEL 7
REMARK VINA RESULT:    -7.401      1.492      1.774
REMARK INTER + INTRA:         -11.064
REMARK INTER:                 -10.284
REMARK INTRA:                  -0.779
REMARK UNBOUND:                -0.850
REMARK  7 active torsions:
REMARK  status: ('A' for Active; 'I' for Inactive)
REMARK    1  A    between atoms: C_2  and  C_3 
REMARK    2  A    between atoms: C_3  and  C_4 
REMARK    3  A    between atoms: C_4  and  C_5 
REMARK    4  A    between atoms: C_12  and  C_16 
REMARK    5  A    between atoms: C_13  and  O_15 
REMARK       I    between atoms: C_16  and  N_18 
REMARK    6  A    between atoms: N_18  and  C_20 
REMARK    7  A    between atoms: C_23  and  N_26 
ROOT
HETATM    1  C   UNL     1      -0.174  17.078  20.851  0.00  0.00     0.067 A 
HETATM    2  N   UNL     1      -0.875  17.879  20.033  0.00  0.00    -0.178 NA
HETATM    3  N   UNL     1      -2.005  17.199  19.799  0.00  0.00    -0.277 N 
HETATM    4  H   UNL     1      -2.697  17.617  19.187  0.00  0.00     0.189 HD
HETATM    5  C   UNL     1      -0.886  15.877  21.147  0.00  0.00     0.019 A 
HETATM    6  C   UNL     1      -2.048  15.967  20.390  0.00  0.00     0.065 A 
HETATM    7  C   UNL     1      -0.679  14.710  21.915  0.00  0.00     0.035 C 
HETATM    8  C   UNL     1      -1.596  13.627  21.849  0.00  0.00     0.066 C 
HETATM    9  C   UNL     1      -2.671  13.732  20.958  0.00  0.00     0.083 C 
HETATM   10  C   UNL     1      -2.971  14.924  20.286  0.00  0.00     0.069 C 
ENDROOT
BRANCH   8  11
HETATM   11  C   UNL     1      -1.221  12.408  22.642  0.00  0.00     0.260 C 
HETATM   12  O   UNL     1      -0.234  11.820  22.184  0.00  0.00    -0.267 OA
HETATM   13  N   UNL     1      -1.918  11.977  23.804  0.00  0.00    -0.318 N 
HETATM   14  C   UNL     1      -3.201  12.539  24.228  0.00  0.00     0.159 C 
BRANCH  13  15
HETATM   15  C   UNL     1      -1.391  10.895  24.630  0.00  0.00     0.037 A 
HETATM   16  C   UNL     1      -1.300  11.016  26.018  0.00  0.00     0.032 A 
HETATM   17  C   UNL     1      -0.771   9.988  26.819  0.00  0.00     0.031 A 
HETATM   18  C   UNL     1      -0.305   8.785  26.286  0.00  0.00     0.030 A 
HETATM   19  C   UNL     1      -0.469   8.621  24.908  0.00  0.00     0.031 A 
HETATM   20  C   UNL     1      -0.994   9.657  24.095  0.00  0.00     0.032 A 
BRANCH  18  21
HETATM   21  N   UNL     1       0.279   7.846  27.111  0.00  0.00    -0.377 N 
HETATM   22  C   UNL     1       1.484   8.064  27.925  0.00  0.00     0.149 C 
HETATM   23  C   UNL     1       1.170   7.945  29.426  0.00  0.00     0.187 C 
HETATM   24  O   UNL     1       0.487   6.720  29.741  0.00  0.00    -0.388 OA
HETATM   25  C   UNL     1      -0.743   6.637  29.003  0.00  0.00     0.187 C 
HETATM   26  C   UNL     1      -0.491   6.645  27.488  0.00  0.00     0.149 C 
ENDBRANCH  18  21
ENDBRANCH  13  15
ENDBRANCH   8  11
BRANCH   9  27
HETATM   27  O   UNL     1      -3.463  12.676  20.597  0.00  0.00    -0.360 OA
HETATM   28  H   UNL     1      -4.390  12.960  20.723  0.00  0.00     0.217 HD
ENDBRANCH   9  27
BRANCH   1  29
HETATM   29  C   UNL     1       1.209  17.483  21.256  0.00  0.00     0.062 C 
BRANCH  29  30
HETATM   30  C   UNL     1       2.287  16.538  20.717  0.00  0.00     0.006 C 
BRANCH  30  31
HETATM   31  C   UNL     1       2.976  15.758  21.838  0.00  0.00    -0.004 C 
HETATM   32  C   UNL     1       3.621  14.488  21.304  0.00  0.00     0.005 C 
ENDBRANCH  30  31
ENDBRANCH  29  30
ENDBRANCH   1  29
TORSDOF 7
ENDMDL
MODEL 8
REMARK VINA RESULT:    -7.388      1.997      2.403
REMARK INTER + INTRA:         -11.044
REMARK INTER:                 -10.101
REMARK INTRA:                  -0.943
REMARK UNBOUND:                -0.850
REMARK  7 active torsions:
REMARK  status: ('A' for Active; 'I' for Inactive)
REMARK    1  A    between atoms: C_2  and  C_3 
REMARK    2  A    between atoms: C_3  and  C_4 
REMARK    3  A    between atoms: C_4  and  C_5 
REMARK    4  A    between atoms: C_12  and  C_16 
REMARK    5  A    between atoms: C_13  and  O_15 
REMARK       I    between atoms: C_16  and  N_18 
REMARK    6  A    between atoms: N_18  and  C_20 
REMARK    7  A    between atoms: C_23  and  N_26 
ROOT
HETATM    1  C   UNL     1       0.622  17.176  20.382  0.00  0.00     0.067 A 
HETATM    2  N   UNL     1      -0.021  17.874  19.433  0.00  0.00    -0.178 NA
HETATM    3  N   UNL     1      -1.304  17.515  19.578  0.00  0.00    -0.277 N 
HETATM    4  H   UNL     1      -1.988  17.922  18.949  0.00  0.00     0.189 HD
HETATM    5  C   UNL     1      -0.277  16.373  21.146  0.00  0.00     0.019 A 
HETATM    6  C   UNL     1      -1.515  16.575  20.547  0.00  0.00     0.065 A 
HETATM    7  C   UNL     1      -0.198  15.470  22.228  0.00  0.00     0.035 C 
HETATM    8  C   UNL     1      -1.340  14.731  22.639  0.00  0.00     0.066 C 
HETATM    9  C   UNL     1      -2.520  14.883  21.900  0.00  0.00     0.083 C 
HETATM   10  C   UNL     1      -2.660  15.863  20.909  0.00  0.00     0.069 C 
ENDROOT
BRANCH   8  11
HETATM   11  C   UNL     1      -1.109  13.739  23.743  0.00  0.00     0.260 C 
HETATM   12  O   UNL     1      -1.061  14.264  24.861  0.00  0.00    -0.267 OA
HETATM   13  N   UNL     1      -0.967  12.339  23.530  0.00  0.00    -0.318 N 
HETATM   14  C   UNL     1      -0.811  11.739  22.205  0.00  0.00     0.159 C 
BRANCH  13  15
HETATM   15  C   UNL     1      -0.930  11.415  24.659  0.00  0.00     0.037 A 
HETATM   16  C   UNL     1       0.219  10.681  24.961  0.00  0.00     0.032 A 
HETATM   17  C   UNL     1       0.256   9.770  26.032  0.00  0.00     0.031 A 
HETATM   18  C   UNL     1      -0.844   9.540  26.861  0.00  0.00     0.030 A 
HETATM   19  C   UNL     1      -1.970  10.331  26.618  0.00  0.00     0.031 A 
HETATM   20  C   UNL     1      -2.016  11.244  25.535  0.00  0.00     0.032 A 
BRANCH  18  21
HETATM   21  N   UNL     1      -0.775   8.575  27.844  0.00  0.00    -0.377 N 
HETATM   22  C   UNL     1      -0.691   7.126  27.608  0.00  0.00     0.149 C 
HETATM   23  C   UNL     1       0.633   6.552  28.138  0.00  0.00     0.187 C 
HETATM   24  O   UNL     1       0.873   6.917  29.508  0.00  0.00    -0.388 OA
HETATM   25  C   UNL     1       0.904   8.347  29.638  0.00  0.00     0.187 C 
HETATM   26  C   UNL     1      -0.434   8.978  29.222  0.00  0.00     0.149 C 
ENDBRANCH  18  21
ENDBRANCH  13  15
ENDBRANCH   8  11
BRANCH   9  27
HETATM   27  O   UNL     1      -3.596  14.045  22.011  0.00  0.00    -0.360 OA
HETATM   28  H   UNL     1      -3.434  13.475  22.789  0.00  0.00     0.217 HD
ENDBRANCH   9  27
BRANCH   1  29
HETATM   29  C   UNL     1       2.115  17.260  20.459  0.00  0.00     0.062 C 
BRANCH  29  30
HETATM   30  C   UNL     1       2.790  15.885  20.425  0.00  0.00     0.006 C 
BRANCH  30  31
HETATM   31  C   UNL     1       3.516  15.572  21.734  0.00  0.00    -0.004 C 
HETATM   32  C   UNL     1       4.595  14.521  21.523  0.00  0.00     0.005 C 
ENDBRANCH  30  31
ENDBRANCH  29  30
ENDBRANCH   1  29
TORSDOF 7
ENDMDL
