MODEL 1
REMARK VINA RESULT:    -7.465      0.000      0.000
REMARK INTER + INTRA:         -10.870
REMARK INTER:                  -9.972
REMARK INTRA:                  -0.898
REMARK UNBOUND:                -1.004
REMARK  6 active torsions:
REMARK  status: ('A' for Active; 'I' for Inactive)
REMARK    1  A    between atoms: C_2  and  C_3 
REMARK    2  A    between atoms: C_3  and  C_5 
REMARK    3  A    between atoms: C_12  and  C_16 
REMARK    4  A    between atoms: C_13  and  O_15 
REMARK       I    between atoms: C_16  and  N_18 
REMARK    5  A    between atoms: N_18  and  C_20 
REMARK    6  A    between atoms: C_23  and  N_26 
ROOT
HETATM    1  C   UNL     1       3.948  13.848  22.995  0.00  0.00     0.135 A 
HETATM    2  N   UNL     1       4.616  14.854  23.593  0.00  0.00    -0.170 NA
HETATM    3  N   UNL     1       5.860  14.768  23.098  0.00  0.00    -0.277 N 
HETATM    4  H   UNL     1       6.556  15.425  23.432  0.00  0.00     0.189 HD
HETATM    5  C   UNL     1       4.793  13.148  22.075  0.00  0.00     0.027 A 
HETATM    6  C   UNL     1       6.041  13.742  22.213  0.00  0.00     0.065 A 
HETATM    7  C   UNL     1       4.667  12.065  21.179  0.00  0.00     0.036 C 
HETATM    8  C   UNL     1       5.801  11.553  20.500  0.00  0.00     0.066 C 
HETATM    9  C   UNL     1       7.051  12.117  20.782  0.00  0.00     0.083 C 
HETATM   10  C   UNL     1       7.187  13.267  21.571  0.00  0.00     0.069 C 
ENDROOT
BRANCH   8  11
HETATM   11  C   UNL     1       5.551  10.341  19.662  0.00  0.00     0.260 C 
HETATM   12  O   UNL     1       6.187   9.346  20.029  0.00  0.00    -0.267 OA
HETATM   13  N   UNL     1       4.675  10.323  18.550  0.00  0.00    -0.318 N 
HETATM   14  C   UNL     1       4.067  11.507  17.944  0.00  0.00     0.159 C 
BRANCH  13  15
HETATM   15  C   UNL     1       4.362   9.060  17.918  0.00  0.00     0.037 A 
HETATM   16  C   UNL     1       4.745   8.805  16.600  0.00  0.00     0.032 A 
HETATM   17  C   UNL     1       4.402   7.607  15.960  0.00  0.00     0.031 A 
HETATM   18  C   UNL     1       3.659   6.605  16.592  0.00  0.00     0.030 A 
HETATM   19  C   UNL     1       3.342   6.836  17.938  0.00  0.00     0.031 A 
HETATM   20  C   UNL     1       3.693   8.037  18.597  0.00  0.00     0.032 A 
BRANCH  18  21
HETATM   21  N   UNL     1       3.265   5.476  15.908  0.00  0.00    -0.377 N 
HETATM   22  C   UNL     1       2.740   4.256  16.538  0.00  0.00     0.149 C 
HETATM   23  C   UNL     1       1.320   3.958  16.033  0.00  0.00     0.187 C 
HETATM   24  O   UNL     1       1.271   3.891  14.596  0.00  0.00    -0.388 OA
HETATM   25  C   UNL     1       1.696   5.141  14.030  0.00  0.00     0.187 C 
HETATM   26  C   UNL     1       3.139   5.491  14.438  0.00  0.00     0.149 C 
ENDBRANCH  18  21
ENDBRANCH  13  15
ENDBRANCH   8  11
BRANCH   9  27
HETATM   27  O   UNL     1       8.240  11.555  20.401  0.00  0.00    -0.360 OA
HETATM   28  H   UNL     1       8.180  10.600  20.576  0.00  0.00     0.217 HD
ENDBRANCH   9  27
BRANCH   1  29
HETATM   29  C   UNL     1       2.545  13.554  23.333  0.00  0.00     0.180 C 
HETATM   30  O   UNL     1       2.249  12.675  24.143  0.00  0.00    -0.291 OA
BRANCH  29  31
HETATM   31  C   UNL     1       1.475  14.398  22.645  0.00  0.00     0.081 C 
HETATM   32  C   UNL     1       0.822  13.686  21.472  0.00  0.00     0.013 C 
ENDBRANCH  29  31
ENDBRANCH   1  29
TORSDOF 6
ENDMDL
MODEL 2
REMARK VINA RESULT:    -7.351      3.154      9.908
REMARK INTER + INTRA:         -10.718
REMARK INTER:                  -9.804
REMARK INTRA:                  -0.914
REMARK UNBOUND:                -1.004
REMARK  6 active torsions:
REMARK  status: ('A' for Active; 'I' for Inactive)
REMARK    1  A    between atoms: C_2  and  C_3 
REMARK    2  A    between atoms: C_3  and  C_5 
REMARK    3  A    between atoms: C_12  and  C_16 
REMARK    4  A    between atoms: C_13  and  O_15 
REMARK       I    between atoms: C_16  and  N_18 
REMARK    5  A    between atoms: N_18  and  C_20 
REMARK    6  A    between atoms: C_23  and  N_26 
ROOT
HETATM    1  C   UNL     1       4.632   6.285  17.577  0.00  0.00     0.135 A 
HETATM    2  N   UNL     1       3.783   6.006  16.568  0.00  0.00    -0.170 NA
HETATM    3  N   UNL     1       3.439   7.207  16.081  0.00  0.00    -0.277 N 
HETATM    4  H   UNL     1       2.775   7.242  15.315  0.00  0.00     0.189 HD
HETATM    5  C   UNL     1       4.848   7.696  17.689  0.00  0.00     0.027 A 
HETATM    6  C   UNL     1       4.012   8.262  16.734  0.00  0.00     0.065 A 
HETATM    7  C   UNL     1       5.611   8.561  18.502  0.00  0.00     0.036 C 
HETATM    8  C   UNL     1       5.468   9.967  18.395  0.00  0.00     0.066 C 
HETATM    9  C   UNL     1       4.514  10.469  17.500  0.00  0.00     0.083 C 
HETATM   10  C   UNL     1       3.834   9.641  16.599  0.00  0.00     0.069 C 
ENDROOT
BRANCH   8  11
HETATM   11  C   UNL     1       6.254  10.767  19.383  0.00  0.00     0.260 C 
HETATM   12  O   UNL     1       7.230  11.343  18.889  0.00  0.00    -0.267 OA
HETATM   13  N   UNL     1       5.925  10.859  20.756  0.00  0.00    -0.318 N 
HETATM   14  C   UNL     1       4.922  10.038  21.435  0.00  0.00     0.159 C 
BRANCH  13  15
HETATM   15  C   UNL     1       6.638  11.801  21.591  0.00  0.00     0.037 A 
HETATM   16  C   UNL     1       6.259  13.144  21.638  0.00  0.00     0.032 A 
HETATM   17  C   UNL     1       6.973  14.077  22.403  0.00  0.00     0.031 A 
HETATM   18  C   UNL     1       8.100  13.726  23.153  0.00  0.00     0.030 A 
HETATM   19  C   UNL     1       8.429  12.363  23.160  0.00  0.00     0.031 A 
HETATM   20  C   UNL     1       7.708  11.412  22.402  0.00  0.00     0.032 A 
BRANCH  18  21
HETATM   21  N   UNL     1       8.830  14.682  23.825  0.00  0.00    -0.377 N 
HETATM   22  C   UNL     1       8.920  14.790  25.288  0.00  0.00     0.149 C 
HETATM   23  C   UNL     1      10.379  14.651  25.749  0.00  0.00     0.187 C 
HETATM   24  O   UNL     1      11.239  15.592  25.081  0.00  0.00    -0.388 OA
HETATM   25  C   UNL     1      11.194  15.378  23.661  0.00  0.00     0.187 C 
HETATM   26  C   UNL     1       9.771  15.558  23.101  0.00  0.00     0.149 C 
ENDBRANCH  18  21
ENDBRANCH  13  15
ENDBRANCH   8  11
BRANCH   9  27
HETATM   27  O   UNL     1       4.097  11.773  17.489  0.00  0.00    -0.360 OA
HETATM   28  H   UNL     1       4.608  12.235  16.801  0.00  0.00     0.217 HD
ENDBRANCH   9  27
BRANCH   1  29
HETATM   29  C   UNL     1       5.185   5.218  18.428  0.00  0.00     0.180 C 
HETATM   30  O   UNL     1       6.302   4.742  18.220  0.00  0.00    -0.291 OA
BRANCH  29  31
HETATM   31  C   UNL     1       4.318   4.738  19.589  0.00  0.00     0.081 C 
HETATM   32  C   UNL     1       4.315   5.701  20.765  0.00  0.00     0.013 C 
ENDBRANCH  29  31
ENDBRANCH   1  29
TORSDOF 6
ENDMDL
MODEL 3
REMARK VINA RESULT:    -7.297      3.557      5.896
REMARK INTER + INTRA:         -10.647
REMARK INTER:                  -9.786
REMARK INTRA:                  -0.861
REMARK UNBOUND:                -1.004
REMARK  6 active torsions:
REMARK  status: ('A' for Active; 'I' for Inactive)
REMARK    1  A    between atoms: C_2  and  C_3 
REMARK    2  A    between atoms: C_3  and  C_5 
REMARK    3  A    between atoms: C_12  and  C_16 
REMARK    4  A    between atoms: C_13  and  O_15 
REMARK       I    between atoms: C_16  and  N_18 
REMARK    5  A    between atoms: N_18  and  C_20 
REMARK    6  A    between atoms: C_23  and  N_26 
ROOT
HETATM    1  C   UNL     1      10.597  14.270  25.661  0.00  0.00     0.135 A 
HETATM    2  N   UNL     1      10.520  15.054  26.754  0.00  0.00    -0.170 NA
HETATM    3  N   UNL     1       9.232  15.421  26.810  0.00  0.00    -0.277 N 
HETATM    4  H   UNL     1       8.942  16.046  27.555  0.00  0.00     0.189 HD
HETATM    5  C   UNL     1       9.312  14.116  25.050  0.00  0.00     0.027 A 
HETATM    6  C   UNL     1       8.462  14.924  25.795  0.00  0.00     0.065 A 
HETATM    7  C   UNL     1       8.773  13.430  23.940  0.00  0.00     0.036 C 
HETATM    8  C   UNL     1       7.423  13.624  23.556  0.00  0.00     0.066 C 
HETATM    9  C   UNL     1       6.657  14.550  24.276  0.00  0.00     0.083 C 
HETATM   10  C   UNL     1       7.128  15.151  25.450  0.00  0.00     0.069 C 
ENDROOT
BRANCH   8  11
HETATM   11  C   UNL     1       7.006  12.921  22.305  0.00  0.00     0.260 C 
HETATM   12  O   UNL     1       7.595  13.320  21.294  0.00  0.00    -0.267 OA
HETATM   13  N   UNL     1       6.028  11.898  22.269  0.00  0.00    -0.318 N 
HETATM   14  C   UNL     1       5.153  11.536  23.383  0.00  0.00     0.159 C 
BRANCH  13  15
HETATM   15  C   UNL     1       5.828  11.156  21.043  0.00  0.00     0.037 A 
HETATM   16  C   UNL     1       5.172  11.735  19.955  0.00  0.00     0.032 A 
HETATM   17  C   UNL     1       4.927  11.010  18.781  0.00  0.00     0.031 A 
HETATM   18  C   UNL     1       5.313   9.674  18.630  0.00  0.00     0.030 A 
HETATM   19  C   UNL     1       6.037   9.123  19.698  0.00  0.00     0.031 A 
HETATM   20  C   UNL     1       6.300   9.850  20.881  0.00  0.00     0.032 A 
BRANCH  18  21
HETATM   21  N   UNL     1       4.981   8.964  17.497  0.00  0.00    -0.377 N 
HETATM   22  C   UNL     1       5.645   7.727  17.061  0.00  0.00     0.149 C 
HETATM   23  C   UNL     1       4.635   6.572  16.986  0.00  0.00     0.187 C 
HETATM   24  O   UNL     1       3.508   6.906  16.155  0.00  0.00    -0.388 OA
HETATM   25  C   UNL     1       2.833   8.059  16.682  0.00  0.00     0.187 C 
HETATM   26  C   UNL     1       3.759   9.287  16.736  0.00  0.00     0.149 C 
ENDBRANCH  18  21
ENDBRANCH  13  15
ENDBRANCH   8  11
BRANCH   9  27
HETATM   27  O   UNL     1       5.441  15.018  23.856  0.00  0.00    -0.360 OA
HETATM   28  H   UNL     1       4.762  14.407  24.191  0.00  0.00     0.217 HD
ENDBRANCH   9  27
BRANCH   1  29
HETATM   29  C   UNL     1      11.884  13.718  25.205  0.00  0.00     0.180 C 
HETATM   30  O   UNL     1      12.167  12.529  25.361  0.00  0.00    -0.291 OA
BRANCH  29  31
HETATM   31  C   UNL     1      12.847  14.682  24.518  0.00  0.00     0.081 C 
HETATM   32  C   UNL     1      12.346  15.155  23.162  0.00  0.00     0.013 C 
ENDBRANCH  29  31
ENDBRANCH   1  29
TORSDOF 6
ENDMDL
MODEL 4
REMARK VINA RESULT:    -7.284      1.290      1.539
REMARK INTER + INTRA:         -10.630
REMARK INTER:                  -9.883
REMARK INTRA:                  -0.747
REMARK UNBOUND:                -1.004
REMARK  6 active torsions:
REMARK  status: ('A' for Active; 'I' for Inactive)
REMARK    1  A    between atoms: C_2  and  C_3 
REMARK    2  A    between atoms: C_3  and  C_5 
REMARK    3  A    between atoms: C_12  and  C_16 
REMARK    4  A    between atoms: C_13  and  O_15 
REMARK       I    between atoms: C_16  and  N_18 
REMARK    5  A    between atoms: N_18  and  C_20 
REMARK    6  A    between atoms: C_23  and  N_26 
ROOT
HETATM    1  C   UNL     1       4.668  14.704  23.479  0.00  0.00     0.135 A 
HETATM    2  N   UNL     1       5.547  15.606  23.960  0.00  0.00    -0.170 NA
HETATM    3  N   UNL     1       6.688  15.339  23.306  0.00  0.00    -0.277 N 
HETATM    4  H   UNL     1       7.509  15.891  23.530  0.00  0.00     0.189 HD
HETATM    5  C   UNL     1       5.273  13.886  22.473  0.00  0.00     0.027 A 
HETATM    6  C   UNL     1       6.601  14.295  22.429  0.00  0.00     0.065 A 
HETATM    7  C   UNL     1       4.875  12.828  21.627  0.00  0.00     0.036 C 
HETATM    8  C   UNL     1       5.823  12.156  20.816  0.00  0.00     0.066 C 
HETATM    9  C   UNL     1       7.167  12.535  20.916  0.00  0.00     0.083 C 
HETATM   10  C   UNL     1       7.570  13.656  21.652  0.00  0.00     0.069 C 
ENDROOT
BRANCH   8  11
HETATM   11  C   UNL     1       5.292  10.988  20.047  0.00  0.00     0.260 C 
HETATM   12  O   UNL     1       4.494  11.303  19.158  0.00  0.00    -0.267 OA
HETATM   13  N   UNL     1       5.660   9.646  20.307  0.00  0.00    -0.318 N 
HETATM   14  C   UNL     1       6.425   9.197  21.470  0.00  0.00     0.159 C 
BRANCH  13  15
HETATM   15  C   UNL     1       5.236   8.609  19.393  0.00  0.00     0.037 A 
HETATM   16  C   UNL     1       5.694   8.586  18.074  0.00  0.00     0.032 A 
HETATM   17  C   UNL     1       5.251   7.616  17.165  0.00  0.00     0.031 A 
HETATM   18  C   UNL     1       4.327   6.626  17.515  0.00  0.00     0.030 A 
HETATM   19  C   UNL     1       3.928   6.610  18.859  0.00  0.00     0.031 A 
HETATM   20  C   UNL     1       4.380   7.577  19.788  0.00  0.00     0.032 A 
BRANCH  18  21
HETATM   21  N   UNL     1       3.846   5.740  16.575  0.00  0.00    -0.377 N 
HETATM   22  C   UNL     1       3.482   4.343  16.852  0.00  0.00     0.149 C 
HETATM   23  C   UNL     1       2.003   4.097  16.519  0.00  0.00     0.187 C 
HETATM   24  O   UNL     1       1.691   4.483  15.168  0.00  0.00    -0.388 OA
HETATM   25  C   UNL     1       1.967   5.880  14.979  0.00  0.00     0.187 C 
HETATM   26  C   UNL     1       3.449   6.208  15.233  0.00  0.00     0.149 C 
ENDBRANCH  18  21
ENDBRANCH  13  15
ENDBRANCH   8  11
BRANCH   9  27
HETATM   27  O   UNL     1       8.202  11.806  20.393  0.00  0.00    -0.360 OA
HETATM   28  H   UNL     1       9.030  12.233  20.675  0.00  0.00     0.217 HD
ENDBRANCH   9  27
BRANCH   1  29
HETATM   29  C   UNL     1       3.296  14.617  24.008  0.00  0.00     0.180 C 
HETATM   30  O   UNL     1       3.067  14.172  25.133  0.00  0.00    -0.291 OA
BRANCH  29  31
HETATM   31  C   UNL     1       2.173  15.116  23.104  0.00  0.00     0.081 C 
HETATM   32  C   UNL     1       1.386  13.987  22.457  0.00  0.00     0.013 C 
ENDBRANCH  29  31
ENDBRANCH   1  29
TORSDOF 6
ENDMDL
MODEL 5
REMARK VINA RESULT:    -7.155      1.857      4.189
REMARK INTER + INTRA:         -10.459
REMARK INTER:                  -9.394
REMARK INTRA:                  -1.066
REMARK UNBOUND:                -1.004
REMARK  6 active torsions:
REMARK  status: ('A' for Active; 'I' for Inactive)
REMARK    1  A    between atoms: C_2  and  C_3 
REMARK    2  A    between atoms: C_3  and  C_5 
REMARK    3  A    between atoms: C_12  and  C_16 
REMARK    4  A    between atoms: C_13  and  O_15 
REMARK       I    between atoms: C_16  and  N_18 
REMARK    5  A    between atoms: N_18  and  C_20 
REMARK    6  A    between atoms: C_23  and  N_26 
ROOT
HETATM    1  C   UNL     1       8.629  12.945  21.407  0.00  0.00     0.135 A 
HETATM    2  N   UNL     1       8.732  13.776  22.463  0.00  0.00    -0.170 NA
HETATM    3  N   UNL     1       7.478  13.879  22.929  0.00  0.00    -0.277 N 
HETATM    4  H   UNL     1       7.310  14.485  23.724  0.00  0.00     0.189 HD
HETATM    5  C   UNL     1       7.282  12.491  21.243  0.00  0.00     0.027 A 
HETATM    6  C   UNL     1       6.556  13.163  22.218  0.00  0.00     0.065 A 
HETATM    7  C   UNL     1       6.583  11.631  20.369  0.00  0.00     0.036 C 
HETATM    8  C   UNL     1       5.172  11.520  20.439  0.00  0.00     0.066 C 
HETATM    9  C   UNL     1       4.490  12.322  21.362  0.00  0.00     0.083 C 
HETATM   10  C   UNL     1       5.164  13.090  22.319  0.00  0.00     0.069 C 
ENDROOT
BRANCH   8  11
HETATM   11  C   UNL     1       4.545  10.657  19.391  0.00  0.00     0.260 C 
HETATM   12  O   UNL     1       3.882  11.289  18.561  0.00  0.00    -0.267 OA
HETATM   13  N   UNL     1       4.688   9.249  19.347  0.00  0.00    -0.318 N 
HETATM   14  C   UNL     1       5.274   8.432  20.409  0.00  0.00     0.159 C 
BRANCH  13  15
HETATM   15  C   UNL     1       4.198   8.526  18.193  0.00  0.00     0.037 A 
HETATM   16  C   UNL     1       2.945   7.910  18.215  0.00  0.00     0.032 A 
HETATM   17  C   UNL     1       2.481   7.163  17.123  0.00  0.00     0.031 A 
HETATM   18  C   UNL     1       3.237   6.986  15.960  0.00  0.00     0.030 A 
HETATM   19  C   UNL     1       4.461   7.669  15.917  0.00  0.00     0.031 A 
HETATM   20  C   UNL     1       4.933   8.435  17.008  0.00  0.00     0.032 A 
BRANCH  18  21
HETATM   21  N   UNL     1       2.788   6.176  14.940  0.00  0.00    -0.377 N 
HETATM   22  C   UNL     1       3.656   5.379  14.061  0.00  0.00     0.149 C 
HETATM   23  C   UNL     1       3.317   3.886  14.180  0.00  0.00     0.187 C 
HETATM   24  O   UNL     1       1.921   3.637  13.934  0.00  0.00    -0.388 OA
HETATM   25  C   UNL     1       1.118   4.357  14.884  0.00  0.00     0.187 C 
HETATM   26  C   UNL     1       1.351   5.876  14.793  0.00  0.00     0.149 C 
ENDBRANCH  18  21
ENDBRANCH  13  15
ENDBRANCH   8  11
BRANCH   9  27
HETATM   27  O   UNL     1       3.133  12.503  21.353  0.00  0.00    -0.360 OA
HETATM   28  H   UNL     1       2.759  11.931  22.046  0.00  0.00     0.217 HD
ENDBRANCH   9  27
BRANCH   1  29
HETATM   29  C   UNL     1       9.795  12.632  20.564  0.00  0.00     0.180 C 
HETATM   30  O   UNL     1       9.761  12.771  19.341  0.00  0.00    -0.291 OA
BRANCH  29  31
HETATM   31  C   UNL     1      11.053  12.141  21.276  0.00  0.00     0.081 C 
HETATM   32  C   UNL     1      10.847  10.820  21.998  0.00  0.00     0.013 C 
ENDBRANCH  29  31
ENDBRANCH   1  29
TORSDOF 6
ENDMDL
MODEL 6
REMARK VINA RESULT:    -7.088      2.875      4.641
REMARK INTER + INTRA:         -10.370
REMARK INTER:                  -9.362
REMARK INTRA:                  -1.009
REMARK UNBOUND:                -1.004
REMARK  6 active torsions:
REMARK  status: ('A' for Active; 'I' for Inactive)
REMARK    1  A    between atoms: C_2  and  C_3 
REMARK    2  A    between atoms: C_3  and  C_5 
REMARK    3  A    between atoms: C_12  and  C_16 
REMARK    4  A    between atoms: C_13  and  O_15 
REMARK       I    between atoms: C_16  and  N_18 
REMARK    5  A    between atoms: N_18  and  C_20 
REMARK    6  A    between atoms: C_23  and  N_26 
ROOT
HETATM    1  C   UNL     1       9.706  14.592  24.323  0.00  0.00     0.135 A 
HETATM    2  N   UNL     1       9.581  15.202  25.518  0.00  0.00    -0.170 NA
HETATM    3  N   UNL     1       8.562  14.563  26.112  0.00  0.00    -0.277 N 
HETATM    4  H   UNL     1       8.270  14.877  27.032  0.00  0.00     0.189 HD
HETATM    5  C   UNL     1       8.764  13.521  24.193  0.00  0.00     0.027 A 
HETATM    6  C   UNL     1       8.004  13.571  25.356  0.00  0.00     0.065 A 
HETATM    7  C   UNL     1       8.436  12.547  23.226  0.00  0.00     0.036 C 
HETATM    8  C   UNL     1       7.315  11.700  23.405  0.00  0.00     0.066 C 
HETATM    9  C   UNL     1       6.516  11.889  24.540  0.00  0.00     0.083 C 
HETATM   10  C   UNL     1       6.886  12.762  25.571  0.00  0.00     0.069 C 
ENDROOT
BRANCH   8  11
HETATM   11  C   UNL     1       7.015  10.786  22.261  0.00  0.00     0.260 C 
HETATM   12  O   UNL     1       7.745   9.789  22.219  0.00  0.00    -0.267 OA
HETATM   13  N   UNL     1       5.998  11.031  21.307  0.00  0.00    -0.318 N 
HETATM   14  C   UNL     1       5.253  12.283  21.179  0.00  0.00     0.159 C 
BRANCH  13  15
HETATM   15  C   UNL     1       5.666   9.999  20.349  0.00  0.00     0.037 A 
HETATM   16  C   UNL     1       6.100  10.086  19.025  0.00  0.00     0.032 A 
HETATM   17  C   UNL     1       5.743   9.121  18.074  0.00  0.00     0.031 A 
HETATM   18  C   UNL     1       4.932   8.025  18.387  0.00  0.00     0.030 A 
HETATM   19  C   UNL     1       4.561   7.904  19.734  0.00  0.00     0.031 A 
HETATM   20  C   UNL     1       4.927   8.867  20.703  0.00  0.00     0.032 A 
BRANCH  18  21
HETATM   21  N   UNL     1       4.527   7.140  17.411  0.00  0.00    -0.377 N 
HETATM   22  C   UNL     1       4.402   5.688  17.599  0.00  0.00     0.149 C 
HETATM   23  C   UNL     1       2.958   5.234  17.336  0.00  0.00     0.187 C 
HETATM   24  O   UNL     1       2.496   5.656  16.040  0.00  0.00    -0.388 OA
HETATM   25  C   UNL     1       2.541   7.089  15.944  0.00  0.00     0.187 C 
HETATM   26  C   UNL     1       3.970   7.629  16.136  0.00  0.00     0.149 C 
ENDBRANCH  18  21
ENDBRANCH  13  15
ENDBRANCH   8  11
BRANCH   9  27
HETATM   27  O   UNL     1       5.279  11.325  24.699  0.00  0.00    -0.360 OA
HETATM   28  H   UNL     1       4.699  12.001  25.090  0.00  0.00     0.217 HD
ENDBRANCH   9  27
BRANCH   1  29
HETATM   29  C   UNL     1      10.683  15.059  23.324  0.00  0.00     0.180 C 
HETATM   30  O   UNL     1      11.764  14.491  23.168  0.00  0.00    -0.291 OA
BRANCH  29  31
HETATM   31  C   UNL     1      10.289  16.269  22.483  0.00  0.00     0.081 C 
HETATM   32  C   UNL     1       9.075  16.012  21.605  0.00  0.00     0.013 C 
ENDBRANCH  29  31
ENDBRANCH   1  29
TORSDOF 6
ENDMDL
MODEL 7
REMARK VINA RESULT:    -6.918      6.024      8.003
REMARK INTER + INTRA:         -10.146
REMARK INTER:                  -9.122
REMARK INTRA:                  -1.024
REMARK UNBOUND:                -1.004
REMARK  6 active torsions:
REMARK  status: ('A' for Active; 'I' for Inactive)
REMARK    1  A    between atoms: C_2  and  C_3 
REMARK    2  A    between atoms: C_3  and  C_5 
REMARK    3  A    between atoms: C_12  and  C_16 
REMARK    4  A    between atoms: C_13  and  O_15 
REMARK       I    between atoms: C_16  and  N_18 
REMARK    5  A    between atoms: N_18  and  C_20 
REMARK    6  A    between atoms: C_23  and  N_26 
ROOT
HETATM    1  C   UNL     1      10.194  14.412  22.437  0.00  0.00     0.135 A 
HETATM    2  N   UNL     1      10.451  15.646  21.960  0.00  0.00    -0.170 NA
HETATM    3  N   UNL     1       9.278  16.290  22.055  0.00  0.00    -0.277 N 
HETATM    4  H   UNL     1       9.228  17.247  21.724  0.00  0.00     0.189 HD
HETATM    5  C   UNL     1       8.836  14.305  22.876  0.00  0.00     0.027 A 
HETATM    6  C   UNL     1       8.261  15.530  22.560  0.00  0.00     0.065 A 
HETATM    7  C   UNL     1       8.016  13.316  23.461  0.00  0.00     0.036 C 
HETATM    8  C   UNL     1       6.630  13.545  23.647  0.00  0.00     0.066 C 
HETATM    9  C   UNL     1       6.091  14.754  23.189  0.00  0.00     0.083 C 
HETATM   10  C   UNL     1       6.899  15.796  22.718  0.00  0.00     0.069 C 
ENDROOT
BRANCH   8  11
HETATM   11  C   UNL     1       5.856  12.382  24.178  0.00  0.00     0.260 C 
HETATM   12  O   UNL     1       5.806  12.342  25.413  0.00  0.00    -0.267 OA
HETATM   13  N   UNL     1       5.238  11.410  23.356  0.00  0.00    -0.318 N 
HETATM   14  C   UNL     1       5.439  11.283  21.912  0.00  0.00     0.159 C 
BRANCH  13  15
HETATM   15  C   UNL     1       4.361  10.429  23.958  0.00  0.00     0.037 A 
HETATM   16  C   UNL     1       2.976  10.603  23.943  0.00  0.00     0.032 A 
HETATM   17  C   UNL     1       2.118   9.687  24.568  0.00  0.00     0.031 A 
HETATM   18  C   UNL     1       2.592   8.558  25.244  0.00  0.00     0.030 A 
HETATM   19  C   UNL     1       3.978   8.351  25.192  0.00  0.00     0.031 A 
HETATM   20  C   UNL     1       4.850   9.263  24.553  0.00  0.00     0.032 A 
BRANCH  18  21
HETATM   21  N   UNL     1       1.729   7.724  25.921  0.00  0.00    -0.377 N 
HETATM   22  C   UNL     1       1.587   7.676  27.383  0.00  0.00     0.149 C 
HETATM   23  C   UNL     1       0.146   8.013  27.795  0.00  0.00     0.187 C 
HETATM   24  O   UNL     1      -0.808   7.166  27.128  0.00  0.00    -0.388 OA
HETATM   25  C   UNL     1      -0.699   7.327  25.705  0.00  0.00     0.187 C 
HETATM   26  C   UNL     1       0.704   6.951  25.194  0.00  0.00     0.149 C 
ENDBRANCH  18  21
ENDBRANCH  13  15
ENDBRANCH   8  11
BRANCH   9  27
HETATM   27  O   UNL     1       4.747  14.989  23.071  0.00  0.00    -0.360 OA
HETATM   28  H   UNL     1       4.499  14.804  22.148  0.00  0.00     0.217 HD
ENDBRANCH   9  27
BRANCH   1  29
HETATM   29  C   UNL     1      11.225  13.360  22.432  0.00  0.00     0.180 C 
HETATM   30  O   UNL     1      11.673  12.902  21.380  0.00  0.00    -0.291 OA
BRANCH  29  31
HETATM   31  C   UNL     1      11.724  12.872  23.789  0.00  0.00     0.081 C 
HETATM   32  C   UNL     1      12.121  14.008  24.718  0.00  0.00     0.013 C 
ENDBRANCH  29  31
ENDBRANCH   1  29
TORSDOF 6
ENDMDL
MODEL 8
REMARK VINA RESULT:    -6.874      4.066     10.261
REMARK INTER + INTRA:         -10.088
REMARK INTER:                  -9.156
REMARK INTRA:                  -0.932
REMARK UNBOUND:                -1.004
REMARK  6 active torsions:
REMARK  status: ('A' for Active; 'I' for Inactive)
REMARK    1  A    between atoms: C_2  and  C_3 
REMARK    2  A    between atoms: C_3  and  C_5 
REMARK    3  A    between atoms: C_12  and  C_16 
REMARK    4  A    between atoms: C_13  and  O_15 
REMARK       I    between atoms: C_16  and  N_18 
REMARK    5  A    between atoms: N_18  and  C_20 
REMARK    6  A    between atoms: C_23  and  N_26 
ROOT
HETATM    1  C   UNL     1       4.191   8.886  18.544  0.00  0.00     0.135 A 
HETATM    2  N   UNL     1       3.396   7.821  18.320  0.00  0.00    -0.170 NA
HETATM    3  N   UNL     1       3.601   7.025  19.380  0.00  0.00    -0.277 N 
HETATM    4  H   UNL     1       3.113   6.136  19.415  0.00  0.00     0.189 HD
HETATM    5  C   UNL     1       4.874   8.761  19.796  0.00  0.00     0.027 A 
HETATM    6  C   UNL     1       4.504   7.513  20.282  0.00  0.00     0.065 A 
HETATM    7  C   UNL     1       5.785   9.527  20.554  0.00  0.00     0.036 C 
HETATM    8  C   UNL     1       6.362   9.002  21.737  0.00  0.00     0.066 C 
HETATM    9  C   UNL     1       6.043   7.688  22.101  0.00  0.00     0.083 C 
HETATM   10  C   UNL     1       5.053   6.952  21.438  0.00  0.00     0.069 C 
ENDROOT
BRANCH   8  11
HETATM   11  C   UNL     1       7.389   9.871  22.388  0.00  0.00     0.260 C 
HETATM   12  O   UNL     1       8.530   9.397  22.359  0.00  0.00    -0.267 OA
HETATM   13  N   UNL     1       7.093  11.118  22.988  0.00  0.00    -0.318 N 
HETATM   14  C   UNL     1       5.746  11.628  23.242  0.00  0.00     0.159 C 
BRANCH  13  15
HETATM   15  C   UNL     1       8.180  11.966  23.428  0.00  0.00     0.037 A 
HETATM   16  C   UNL     1       8.621  11.935  24.752  0.00  0.00     0.032 A 
HETATM   17  C   UNL     1       9.638  12.787  25.202  0.00  0.00     0.031 A 
HETATM   18  C   UNL     1      10.264  13.716  24.364  0.00  0.00     0.030 A 
HETATM   19  C   UNL     1       9.868  13.690  23.020  0.00  0.00     0.031 A 
HETATM   20  C   UNL     1       8.851  12.826  22.553  0.00  0.00     0.032 A 
BRANCH  18  21
HETATM   21  N   UNL     1      11.200  14.599  24.858  0.00  0.00    -0.377 N 
HETATM   22  C   UNL     1      11.443  14.846  26.287  0.00  0.00     0.149 C 
HETATM   23  C   UNL     1      12.897  14.508  26.651  0.00  0.00     0.187 C 
HETATM   24  O   UNL     1      13.832  15.208  25.811  0.00  0.00    -0.388 OA
HETATM   25  C   UNL     1      13.620  14.853  24.436  0.00  0.00     0.187 C 
HETATM   26  C   UNL     1      12.199  15.215  23.965  0.00  0.00     0.149 C 
ENDBRANCH  18  21
ENDBRANCH  13  15
ENDBRANCH   8  11
BRANCH   9  27
HETATM   27  O   UNL     1       6.720   6.980  23.058  0.00  0.00    -0.360 OA
HETATM   28  H   UNL     1       6.059   6.605  23.665  0.00  0.00     0.217 HD
ENDBRANCH   9  27
BRANCH   1  29
HETATM   29  C   UNL     1       4.312   9.971  17.555  0.00  0.00     0.180 C 
HETATM   30  O   UNL     1       4.513   9.737  16.363  0.00  0.00    -0.291 OA
BRANCH  29  31
HETATM   31  C   UNL     1       4.162  11.399  18.073  0.00  0.00     0.081 C 
HETATM   32  C   UNL     1       2.987  12.135  17.450  0.00  0.00     0.013 C 
ENDBRANCH  29  31
ENDBRANCH   1  29
TORSDOF 6
ENDMDL
MODEL 9
REMARK VINA RESULT:    -6.872      5.952      8.837
REMARK INTER + INTRA:         -10.085
REMARK INTER:                  -9.081
REMARK INTRA:                  -1.004
REMARK UNBOUND:                -1.004
REMARK  6 active torsions:
REMARK  status: ('A' for Active; 'I' for Inactive)
REMARK    1  A    between atoms: C_2  and  C_3 
REMARK    2  A    between atoms: C_3  and  C_5 
REMARK    3  A    between atoms: C_12  and  C_16 
REMARK    4  A    between atoms: C_13  and  O_15 
REMARK       I    between atoms: C_16  and  N_18 
REMARK    5  A    between atoms: N_18  and  C_20 
REMARK    6  A    between atoms: C_23  and  N_26 
ROOT
HETATM    1  C   UNL     1       5.731  10.394  19.231  0.00  0.00     0.135 A 
HETATM    2  N   UNL     1       6.740  11.032  18.607  0.00  0.00    -0.170 NA
HETATM    3  N   UNL     1       7.511  11.490  19.604  0.00  0.00    -0.277 N 
HETATM    4  H   UNL     1       8.334  12.033  19.364  0.00  0.00     0.189 HD
HETATM    5  C   UNL     1       5.906  10.426  20.652  0.00  0.00     0.027 A 
HETATM    6  C   UNL     1       7.046  11.194  20.854  0.00  0.00     0.065 A 
HETATM    7  C   UNL     1       5.223   9.937  21.787  0.00  0.00     0.036 C 
HETATM    8  C   UNL     1       5.648  10.287  23.092  0.00  0.00     0.066 C 
HETATM    9  C   UNL     1       6.728  11.169  23.222  0.00  0.00     0.083 C 
HETATM   10  C   UNL     1       7.496  11.571  22.122  0.00  0.00     0.069 C 
ENDROOT
BRANCH   8  11
HETATM   11  C   UNL     1       4.779   9.790  24.202  0.00  0.00     0.260 C 
HETATM   12  O   UNL     1       4.070  10.668  24.706  0.00  0.00    -0.267 OA
HETATM   13  N   UNL     1       4.765   8.445  24.644  0.00  0.00    -0.318 N 
HETATM   14  C   UNL     1       5.724   7.419  24.237  0.00  0.00     0.159 C 
BRANCH  13  15
HETATM   15  C   UNL     1       3.760   8.027  25.597  0.00  0.00     0.037 A 
HETATM   16  C   UNL     1       4.038   8.000  26.965  0.00  0.00     0.032 A 
HETATM   17  C   UNL     1       3.091   7.548  27.894  0.00  0.00     0.031 A 
HETATM   18  C   UNL     1       1.824   7.093  27.512  0.00  0.00     0.030 A 
HETATM   19  C   UNL     1       1.526   7.192  26.145  0.00  0.00     0.031 A 
HETATM   20  C   UNL     1       2.470   7.659  25.202  0.00  0.00     0.032 A 
BRANCH  18  21
HETATM   21  N   UNL     1       0.948   6.575  28.440  0.00  0.00    -0.377 N 
HETATM   22  C   UNL     1       0.750   5.140  28.693  0.00  0.00     0.149 C 
HETATM   23  C   UNL     1       1.082   4.801  30.154  0.00  0.00     0.187 C 
HETATM   24  O   UNL     1       0.338   5.622  31.072  0.00  0.00    -0.388 OA
HETATM   25  C   UNL     1       0.645   7.008  30.853  0.00  0.00     0.187 C 
HETATM   26  C   UNL     1       0.286   7.453  29.423  0.00  0.00     0.149 C 
ENDBRANCH  18  21
ENDBRANCH  13  15
ENDBRANCH   8  11
BRANCH   9  27
HETATM   27  O   UNL     1       7.068  11.784  24.397  0.00  0.00    -0.360 OA
HETATM   28  H   UNL     1       7.865  11.341  24.737  0.00  0.00     0.217 HD
ENDBRANCH   9  27
BRANCH   1  29
HETATM   29  C   UNL     1       4.613   9.805  18.474  0.00  0.00     0.180 C 
HETATM   30  O   UNL     1       4.060   8.769  18.843  0.00  0.00    -0.291 OA
BRANCH  29  31
HETATM   31  C   UNL     1       4.163  10.545  17.217  0.00  0.00     0.081 C 
HETATM   32  C   UNL     1       3.381  11.812  17.523  0.00  0.00     0.013 C 
ENDBRANCH  29  31
ENDBRANCH   1  29
TORSDOF 6
ENDMDL
