REMARK  6 active torsions:
REMARK  status: ('A' for Active; 'I' for Inactive)
REMARK    1  A    between atoms: C_2  and  C_3 
REMARK    2  A    between atoms: C_3  and  C_5 
REMARK    3  A    between atoms: C_12  and  C_16 
REMARK    4  A    between atoms: C_13  and  O_15 
REMARK       I    between atoms: C_16  and  N_18 
REMARK    5  A    between atoms: N_18  and  C_20 
REMARK    6  A    between atoms: C_23  and  N_26 
ROOT
HETATM    1  C   UNL     1       4.630  -0.271   0.297  0.00  0.00     0.135 A 
HETATM    2  N   UNL     1       5.287   0.904   0.238  0.00  0.00    -0.170 NA
HETATM    3  N   UNL     1       6.490   0.639   0.769  0.00  0.00    -0.277 N 
HETATM    4  H   UNL     1       7.157   1.399   0.850  0.00  0.00     0.189 HD
HETATM    5  C   UNL     1       5.465  -1.298   0.842  0.00  0.00     0.027 A 
HETATM    6  C   UNL     1       6.647  -0.653   1.186  0.00  0.00     0.065 A 
HETATM    7  C   UNL     1       5.354  -2.677   1.123  0.00  0.00     0.036 C 
HETATM    8  C   UNL     1       6.390  -3.361   1.806  0.00  0.00     0.066 C 
HETATM    9  C   UNL     1       7.499  -2.622   2.237  0.00  0.00     0.083 C 
HETATM   10  C   UNL     1       7.690  -1.285   1.867  0.00  0.00     0.069 C 
ENDROOT
BRANCH   8  11
HETATM   11  C   UNL     1       6.104  -4.791   2.134  0.00  0.00     0.260 C 
HETATM   12  O   UNL     1       4.944  -4.990   2.511  0.00  0.00    -0.267 OA
HETATM   13  N   UNL     1       7.064  -5.826   2.030  0.00  0.00    -0.318 N 
HETATM   14  C   UNL     1       8.494  -5.623   1.799  0.00  0.00     0.159 C 
BRANCH  13  15
HETATM   15  C   UNL     1       6.641  -7.200   2.193  0.00  0.00     0.037 A 
HETATM   16  C   UNL     1       5.399  -7.627   1.720  0.00  0.00     0.032 A 
HETATM   17  C   UNL     1       4.956  -8.942   1.917  0.00  0.00     0.031 A 
HETATM   18  C   UNL     1       5.719  -9.896   2.598  0.00  0.00     0.030 A 
HETATM   19  C   UNL     1       6.995  -9.481   3.005  0.00  0.00     0.031 A 
HETATM   20  C   UNL     1       7.456  -8.160   2.800  0.00  0.00     0.032 A 
BRANCH  18  21
HETATM   21  N   UNL     1       5.219 -11.155   2.850  0.00  0.00    -0.377 N 
HETATM   22  C   UNL     1       6.040 -12.363   3.016  0.00  0.00     0.149 C 
HETATM   23  C   UNL     1       5.813 -12.981   4.404  0.00  0.00     0.187 C 
HETATM   24  O   UNL     1       4.418 -13.234   4.651  0.00  0.00    -0.388 OA
HETATM   25  C   UNL     1       3.675 -12.007   4.579  0.00  0.00     0.187 C 
HETATM   26  C   UNL     1       3.797 -11.346   3.194  0.00  0.00     0.149 C 
ENDBRANCH  18  21
ENDBRANCH  13  15
ENDBRANCH   8  11
BRANCH   9  27
HETATM   27  O   UNL     1       8.431  -3.098   3.120  0.00  0.00    -0.360 OA
HETATM   28  H   UNL     1       7.964  -3.665   3.758  0.00  0.00     0.217 HD
ENDBRANCH   9  27
BRANCH   1  29
HETATM   29  C   UNL     1       3.224  -0.383  -0.128  0.00  0.00     0.180 C 
HETATM   30  O   UNL     1       2.610  -1.447  -0.047  0.00  0.00    -0.291 OA
BRANCH  29  31
HETATM   31  C   UNL     1       2.559   0.883  -0.661  0.00  0.00     0.081 C 
HETATM   32  C   UNL     1       1.103   0.672  -1.044  0.00  0.00     0.013 C 
ENDBRANCH  29  31
ENDBRANCH   1  29
TORSDOF 6
