MODEL 1
REMARK VINA RESULT:    -7.876      0.000      0.000
REMARK INTER + INTRA:         -11.116
REMARK INTER:                  -9.735
REMARK INTRA:                  -1.380
REMARK UNBOUND:                -0.477
REMARK  7 active torsions:
REMARK  status: ('A' for Active; 'I' for Inactive)
REMARK    1  A    between atoms: O_2  and  C_3 
REMARK    2  A    between atoms: C_6  and  C_9 
REMARK    3  A    between atoms: C_10  and  C_11 
REMARK       I    between atoms: C_11  and  N_13 
REMARK    4  A    between atoms: N_13  and  C_14 
REMARK    5  A    between atoms: C_19  and  C_20 
REMARK    6  A    between atoms: C_24  and  O_25 
REMARK    7  A    between atoms: C_27  and  O_28 
ROOT
HETATM    1  C   UNL     1       7.758  13.159  21.634  0.00  0.00     0.039 C 
HETATM    2  C   UNL     1       8.922  13.928  21.555  0.00  0.00     0.131 C 
HETATM    3  N   UNL     1       9.638  13.363  20.540  0.00  0.00    -0.271 N 
HETATM    4  H   UNL     1      10.581  13.597  20.248  0.00  0.00     0.189 HD
HETATM    5  N   UNL     1       9.008  12.400  19.869  0.00  0.00    -0.173 NA
HETATM    6  C   UNL     1       7.880  12.185  20.562  0.00  0.00     0.103 C 
ENDROOT
BRANCH   6   7
HETATM    7  C   UNL     1       6.955  11.098  20.183  0.00  0.00     0.030 A 
HETATM    8  C   UNL     1       6.099  11.272  19.081  0.00  0.00     0.043 A 
HETATM    9  C   UNL     1       5.062  10.372  18.838  0.00  0.00     0.068 A 
HETATM   10 CL   UNL     1       3.913  10.716  17.599  0.00  0.00    -0.081 Cl
HETATM   11  C   UNL     1       4.925   9.233  19.628  0.00  0.00     0.090 A 
HETATM   12  C   UNL     1       5.830   8.975  20.649  0.00  0.00     0.075 A 
HETATM   13  C   UNL     1       6.824   9.915  20.941  0.00  0.00     0.081 A 
BRANCH  11  14
HETATM   14  O   UNL     1       3.894   8.350  19.462  0.00  0.00    -0.359 OA
HETATM   15  H   UNL     1       3.391   8.639  18.676  0.00  0.00     0.217 HD
ENDBRANCH  11  14
BRANCH  13  16
HETATM   16  O   UNL     1       7.630   9.683  22.025  0.00  0.00    -0.360 OA
HETATM   17  H   UNL     1       8.548   9.573  21.733  0.00  0.00     0.217 HD
ENDBRANCH  13  16
ENDBRANCH   6   7
BRANCH   1  18
HETATM   18  C   UNL     1       6.662  13.374  22.587  0.00  0.00    -0.021 A 
HETATM   19  C   UNL     1       5.756  14.429  22.417  0.00  0.00     0.015 A 
HETATM   20  C   UNL     1       4.650  14.590  23.265  0.00  0.00     0.037 A 
HETATM   21  C   UNL     1       4.395  13.663  24.270  0.00  0.00     0.068 A 
HETATM   22  C   UNL     1       5.285  12.605  24.449  0.00  0.00     0.037 A 
HETATM   23  C   UNL     1       6.424  12.480  23.641  0.00  0.00     0.015 A 
BRANCH  21  24
HETATM   24  O   UNL     1       3.325  13.677  25.122  0.00  0.00    -0.356 OA
HETATM   25  C   UNL     1       2.186  14.420  24.701  0.00  0.00     0.210 C 
ENDBRANCH  21  24
ENDBRANCH   1  18
BRANCH   2  26
HETATM   26  C   UNL     1       9.409  15.037  22.347  0.00  0.00     0.270 C 
HETATM   27  O   UNL     1       9.199  16.210  22.068  0.00  0.00    -0.266 OA
HETATM   28  N   UNL     1      10.171  14.696  23.458  0.00  0.00    -0.356 N 
HETATM   29  H   UNL     1      10.489  13.747  23.573  0.00  0.00     0.162 HD
BRANCH  28  30
HETATM   30  C   UNL     1      10.894  15.744  24.159  0.00  0.00     0.118 C 
HETATM   31  C   UNL     1      10.712  15.684  25.664  0.00  0.00     0.026 C 
ENDBRANCH  28  30
ENDBRANCH   2  26
TORSDOF 7
ENDMDL
MODEL 2
REMARK VINA RESULT:    -7.838      2.824      6.249
REMARK INTER + INTRA:         -11.064
REMARK INTER:                  -9.844
REMARK INTRA:                  -1.220
REMARK UNBOUND:                -0.477
REMARK  7 active torsions:
REMARK  status: ('A' for Active; 'I' for Inactive)
REMARK    1  A    between atoms: O_2  and  C_3 
REMARK    2  A    between atoms: C_6  and  C_9 
REMARK    3  A    between atoms: C_10  and  C_11 
REMARK       I    between atoms: C_11  and  N_13 
REMARK    4  A    between atoms: N_13  and  C_14 
REMARK    5  A    between atoms: C_19  and  C_20 
REMARK    6  A    between atoms: C_24  and  O_25 
REMARK    7  A    between atoms: C_27  and  O_28 
ROOT
HETATM    1  C   UNL     1       6.997  12.629  21.861  0.00  0.00     0.039 C 
HETATM    2  C   UNL     1       6.705  11.817  20.762  0.00  0.00     0.131 C 
HETATM    3  N   UNL     1       7.925  11.475  20.254  0.00  0.00    -0.271 N 
HETATM    4  H   UNL     1       8.113  10.962  19.400  0.00  0.00     0.189 HD
HETATM    5  N   UNL     1       8.971  11.866  20.980  0.00  0.00    -0.173 NA
HETATM    6  C   UNL     1       8.449  12.651  21.934  0.00  0.00     0.103 C 
ENDROOT
BRANCH   6   7
HETATM    7  C   UNL     1       9.322  13.370  22.884  0.00  0.00     0.030 A 
HETATM    8  C   UNL     1       9.834  12.689  24.003  0.00  0.00     0.043 A 
HETATM    9  C   UNL     1      10.463  13.387  25.033  0.00  0.00     0.068 A 
HETATM   10 CL   UNL     1      10.906  12.554  26.476  0.00  0.00    -0.081 Cl
HETATM   11  C   UNL     1      10.681  14.758  24.917  0.00  0.00     0.090 A 
HETATM   12  C   UNL     1      10.292  15.435  23.769  0.00  0.00     0.075 A 
HETATM   13  C   UNL     1       9.593  14.750  22.769  0.00  0.00     0.081 A 
BRANCH  11  14
HETATM   14  O   UNL     1      11.246  15.494  25.922  0.00  0.00    -0.359 OA
HETATM   15  H   UNL     1      11.848  14.900  26.410  0.00  0.00     0.217 HD
ENDBRANCH  11  14
BRANCH  13  16
HETATM   16  O   UNL     1       9.126  15.470  21.701  0.00  0.00    -0.360 OA
HETATM   17  H   UNL     1       8.183  15.658  21.820  0.00  0.00     0.217 HD
ENDBRANCH  13  16
ENDBRANCH   6   7
BRANCH   1  18
HETATM   18  C   UNL     1       6.003  13.254  22.742  0.00  0.00    -0.021 A 
HETATM   19  C   UNL     1       5.651  14.601  22.590  0.00  0.00     0.015 A 
HETATM   20  C   UNL     1       4.636  15.186  23.363  0.00  0.00     0.037 A 
HETATM   21  C   UNL     1       3.911  14.417  24.267  0.00  0.00     0.068 A 
HETATM   22  C   UNL     1       4.246  13.073  24.427  0.00  0.00     0.037 A 
HETATM   23  C   UNL     1       5.302  12.505  23.700  0.00  0.00     0.015 A 
BRANCH  21  24
HETATM   24  O   UNL     1       2.865  14.854  25.034  0.00  0.00    -0.356 OA
HETATM   25  C   UNL     1       1.560  14.501  24.592  0.00  0.00     0.210 C 
ENDBRANCH  21  24
ENDBRANCH   1  18
BRANCH   2  26
HETATM   26  C   UNL     1       5.454  11.417  20.156  0.00  0.00     0.270 C 
HETATM   27  O   UNL     1       4.463  11.097  20.799  0.00  0.00    -0.266 OA
HETATM   28  N   UNL     1       5.439  11.386  18.767  0.00  0.00    -0.356 N 
HETATM   29  H   UNL     1       6.304  11.470  18.257  0.00  0.00     0.162 HD
BRANCH  28  30
HETATM   30  C   UNL     1       4.311  10.766  18.092  0.00  0.00     0.118 C 
HETATM   31  C   UNL     1       3.386  11.775  17.436  0.00  0.00     0.026 C 
ENDBRANCH  28  30
ENDBRANCH   2  26
TORSDOF 7
ENDMDL
MODEL 3
REMARK VINA RESULT:    -7.766      2.743      6.189
REMARK INTER + INTRA:         -10.967
REMARK INTER:                 -10.600
REMARK INTRA:                  -0.367
REMARK UNBOUND:                -0.477
REMARK  7 active torsions:
REMARK  status: ('A' for Active; 'I' for Inactive)
REMARK    1  A    between atoms: O_2  and  C_3 
REMARK    2  A    between atoms: C_6  and  C_9 
REMARK    3  A    between atoms: C_10  and  C_11 
REMARK       I    between atoms: C_11  and  N_13 
REMARK    4  A    between atoms: N_13  and  C_14 
REMARK    5  A    between atoms: C_19  and  C_20 
REMARK    6  A    between atoms: C_24  and  O_25 
REMARK    7  A    between atoms: C_27  and  O_28 
ROOT
HETATM    1  C   UNL     1       6.275  12.444  21.080  0.00  0.00     0.039 C 
HETATM    2  C   UNL     1       6.199  11.469  20.082  0.00  0.00     0.131 C 
HETATM    3  N   UNL     1       7.490  11.294  19.674  0.00  0.00    -0.271 N 
HETATM    4  H   UNL     1       7.818  10.726  18.901  0.00  0.00     0.189 HD
HETATM    5  N   UNL     1       8.404  11.948  20.389  0.00  0.00    -0.173 NA
HETATM    6  C   UNL     1       7.693  12.734  21.211  0.00  0.00     0.103 C 
ENDROOT
BRANCH   6   7
HETATM    7  C   UNL     1       8.367  13.704  22.098  0.00  0.00     0.030 A 
HETATM    8  C   UNL     1       8.729  14.966  21.594  0.00  0.00     0.043 A 
HETATM    9  C   UNL     1       9.565  15.810  22.325  0.00  0.00     0.068 A 
HETATM   10 CL   UNL     1      10.147  17.263  21.601  0.00  0.00    -0.081 Cl
HETATM   11  C   UNL     1       9.969  15.453  23.609  0.00  0.00     0.090 A 
HETATM   12  C   UNL     1       9.527  14.266  24.179  0.00  0.00     0.075 A 
HETATM   13  C   UNL     1       8.752  13.384  23.418  0.00  0.00     0.081 A 
BRANCH  11  14
HETATM   14  O   UNL     1      10.829  16.223  24.343  0.00  0.00    -0.359 OA
HETATM   15  H   UNL     1      10.655  17.154  24.108  0.00  0.00     0.217 HD
ENDBRANCH  11  14
BRANCH  13  16
HETATM   16  O   UNL     1       8.428  12.173  23.969  0.00  0.00    -0.360 OA
HETATM   17  H   UNL     1       7.479  12.006  23.859  0.00  0.00     0.217 HD
ENDBRANCH  13  16
ENDBRANCH   6   7
BRANCH   1  18
HETATM   18  C   UNL     1       5.134  12.981  21.831  0.00  0.00    -0.021 A 
HETATM   19  C   UNL     1       5.258  14.152  22.590  0.00  0.00     0.015 A 
HETATM   20  C   UNL     1       4.153  14.726  23.236  0.00  0.00     0.037 A 
HETATM   21  C   UNL     1       2.885  14.172  23.088  0.00  0.00     0.068 A 
HETATM   22  C   UNL     1       2.745  13.010  22.331  0.00  0.00     0.037 A 
HETATM   23  C   UNL     1       3.860  12.400  21.738  0.00  0.00     0.015 A 
BRANCH  21  24
HETATM   24  O   UNL     1       1.726  14.669  23.618  0.00  0.00    -0.356 OA
HETATM   25  C   UNL     1       0.639  13.758  23.739  0.00  0.00     0.210 C 
ENDBRANCH  21  24
ENDBRANCH   1  18
BRANCH   2  26
HETATM   26  C   UNL     1       5.078  10.783  19.478  0.00  0.00     0.270 C 
HETATM   27  O   UNL     1       4.559   9.783  19.958  0.00  0.00    -0.266 OA
HETATM   28  N   UNL     1       4.619  11.315  18.279  0.00  0.00    -0.356 N 
HETATM   29  H   UNL     1       5.163  12.018  17.805  0.00  0.00     0.162 HD
BRANCH  28  30
HETATM   30  C   UNL     1       3.666  10.550  17.493  0.00  0.00     0.118 C 
HETATM   31  C   UNL     1       4.332   9.564  16.550  0.00  0.00     0.026 C 
ENDBRANCH  28  30
ENDBRANCH   2  26
TORSDOF 7
ENDMDL
MODEL 4
REMARK VINA RESULT:    -7.644      2.604      3.631
REMARK INTER + INTRA:         -10.803
REMARK INTER:                  -9.420
REMARK INTRA:                  -1.382
REMARK UNBOUND:                -0.477
REMARK  7 active torsions:
REMARK  status: ('A' for Active; 'I' for Inactive)
REMARK    1  A    between atoms: O_2  and  C_3 
REMARK    2  A    between atoms: C_6  and  C_9 
REMARK    3  A    between atoms: C_10  and  C_11 
REMARK       I    between atoms: C_11  and  N_13 
REMARK    4  A    between atoms: N_13  and  C_14 
REMARK    5  A    between atoms: C_19  and  C_20 
REMARK    6  A    between atoms: C_24  and  O_25 
REMARK    7  A    between atoms: C_27  and  O_28 
ROOT
HETATM    1  C   UNL     1       5.663  11.530  20.673  0.00  0.00     0.039 C 
HETATM    2  C   UNL     1       6.890  12.137  20.951  0.00  0.00     0.131 C 
HETATM    3  N   UNL     1       7.709  11.736  19.935  0.00  0.00    -0.271 N 
HETATM    4  H   UNL     1       8.704  11.907  19.845  0.00  0.00     0.189 HD
HETATM    5  N   UNL     1       7.113  11.048  18.964  0.00  0.00    -0.173 NA
HETATM    6  C   UNL     1       5.870  10.826  19.418  0.00  0.00     0.103 C 
ENDROOT
BRANCH   6   7
HETATM    7  C   UNL     1       4.924   9.988  18.654  0.00  0.00     0.030 A 
HETATM    8  C   UNL     1       4.904   8.598  18.868  0.00  0.00     0.043 A 
HETATM    9  C   UNL     1       4.198   7.757  18.009  0.00  0.00     0.068 A 
HETATM   10 CL   UNL     1       4.348   6.048  18.181  0.00  0.00    -0.081 Cl
HETATM   11  C   UNL     1       3.421   8.296  16.985  0.00  0.00     0.090 A 
HETATM   12  C   UNL     1       3.329   9.671  16.825  0.00  0.00     0.075 A 
HETATM   13  C   UNL     1       4.096  10.512  17.638  0.00  0.00     0.081 A 
BRANCH  11  14
HETATM   14  O   UNL     1       2.755   7.510  16.086  0.00  0.00    -0.359 OA
HETATM   15  H   UNL     1       1.997   8.028  15.756  0.00  0.00     0.217 HD
ENDBRANCH  11  14
BRANCH  13  16
HETATM   16  O   UNL     1       4.068  11.858  17.381  0.00  0.00    -0.360 OA
HETATM   17  H   UNL     1       3.163  12.191  17.481  0.00  0.00     0.217 HD
ENDBRANCH  13  16
ENDBRANCH   6   7
BRANCH   1  18
HETATM   18  C   UNL     1       4.449  11.657  21.489  0.00  0.00    -0.021 A 
HETATM   19  C   UNL     1       4.213  10.796  22.569  0.00  0.00     0.015 A 
HETATM   20  C   UNL     1       3.105  10.966  23.413  0.00  0.00     0.037 A 
HETATM   21  C   UNL     1       2.238  12.038  23.228  0.00  0.00     0.068 A 
HETATM   22  C   UNL     1       2.462  12.906  22.160  0.00  0.00     0.037 A 
HETATM   23  C   UNL     1       3.534  12.699  21.279  0.00  0.00     0.015 A 
BRANCH  21  24
HETATM   24  O   UNL     1       1.160  12.342  24.013  0.00  0.00    -0.356 OA
HETATM   25  C   UNL     1       0.044  12.936  23.361  0.00  0.00     0.210 C 
ENDBRANCH  21  24
ENDBRANCH   1  18
BRANCH   2  26
HETATM   26  C   UNL     1       7.339  12.956  22.055  0.00  0.00     0.270 C 
HETATM   27  O   UNL     1       7.907  12.508  23.043  0.00  0.00    -0.266 OA
HETATM   28  N   UNL     1       7.065  14.315  21.950  0.00  0.00    -0.356 N 
HETATM   29  H   UNL     1       6.441  14.642  21.229  0.00  0.00     0.162 HD
BRANCH  28  30
HETATM   30  C   UNL     1       7.262  15.162  23.114  0.00  0.00     0.118 C 
HETATM   31  C   UNL     1       5.998  15.888  23.538  0.00  0.00     0.026 C 
ENDBRANCH  28  30
ENDBRANCH   2  26
TORSDOF 7
ENDMDL
MODEL 5
REMARK VINA RESULT:    -7.613      3.893      7.297
REMARK INTER + INTRA:         -10.760
REMARK INTER:                  -9.426
REMARK INTRA:                  -1.334
REMARK UNBOUND:                -0.477
REMARK  7 active torsions:
REMARK  status: ('A' for Active; 'I' for Inactive)
REMARK    1  A    between atoms: O_2  and  C_3 
REMARK    2  A    between atoms: C_6  and  C_9 
REMARK    3  A    between atoms: C_10  and  C_11 
REMARK       I    between atoms: C_11  and  N_13 
REMARK    4  A    between atoms: N_13  and  C_14 
REMARK    5  A    between atoms: C_19  and  C_20 
REMARK    6  A    between atoms: C_24  and  O_25 
REMARK    7  A    between atoms: C_27  and  O_28 
ROOT
HETATM    1  C   UNL     1       3.679  13.483  22.808  0.00  0.00     0.039 C 
HETATM    2  C   UNL     1       2.353  13.918  22.884  0.00  0.00     0.131 C 
HETATM    3  N   UNL     1       2.422  15.118  23.530  0.00  0.00    -0.271 N 
HETATM    4  H   UNL     1       1.647  15.692  23.843  0.00  0.00     0.189 HD
HETATM    5  N   UNL     1       3.654  15.568  23.761  0.00  0.00    -0.173 NA
HETATM    6  C   UNL     1       4.458  14.553  23.408  0.00  0.00     0.103 C 
ENDROOT
BRANCH   6   7
HETATM    7  C   UNL     1       5.917  14.635  23.624  0.00  0.00     0.030 A 
HETATM    8  C   UNL     1       6.689  15.487  22.814  0.00  0.00     0.043 A 
HETATM    9  C   UNL     1       8.081  15.417  22.833  0.00  0.00     0.068 A 
HETATM   10 CL   UNL     1       8.992  16.334  21.693  0.00  0.00    -0.081 Cl
HETATM   11  C   UNL     1       8.726  14.568  23.730  0.00  0.00     0.090 A 
HETATM   12  C   UNL     1       7.989  13.803  24.624  0.00  0.00     0.075 A 
HETATM   13  C   UNL     1       6.592  13.816  24.554  0.00  0.00     0.081 A 
BRANCH  11  14
HETATM   14  O   UNL     1      10.086  14.426  23.749  0.00  0.00    -0.359 OA
HETATM   15  H   UNL     1      10.394  14.480  22.824  0.00  0.00     0.217 HD
ENDBRANCH  11  14
BRANCH  13  16
HETATM   16  O   UNL     1       5.898  12.966  25.374  0.00  0.00    -0.360 OA
HETATM   17  H   UNL     1       6.269  12.073  25.309  0.00  0.00     0.217 HD
ENDBRANCH  13  16
ENDBRANCH   6   7
BRANCH   1  18
HETATM   18  C   UNL     1       4.126  12.226  22.196  0.00  0.00    -0.021 A 
HETATM   19  C   UNL     1       4.768  12.219  20.950  0.00  0.00     0.015 A 
HETATM   20  C   UNL     1       5.284  11.038  20.398  0.00  0.00     0.037 A 
HETATM   21  C   UNL     1       5.219   9.843  21.108  0.00  0.00     0.068 A 
HETATM   22  C   UNL     1       4.588   9.834  22.350  0.00  0.00     0.037 A 
HETATM   23  C   UNL     1       4.017  11.003  22.874  0.00  0.00     0.015 A 
BRANCH  21  24
HETATM   24  O   UNL     1       5.734   8.641  20.704  0.00  0.00    -0.356 OA
HETATM   25  C   UNL     1       5.819   8.424  19.300  0.00  0.00     0.210 C 
ENDBRANCH  21  24
ENDBRANCH   1  18
BRANCH   2  26
HETATM   26  C   UNL     1       1.106  13.305  22.480  0.00  0.00     0.270 C 
HETATM   27  O   UNL     1       0.866  12.952  21.332  0.00  0.00    -0.266 OA
HETATM   28  N   UNL     1       0.155  13.155  23.482  0.00  0.00    -0.356 N 
HETATM   29  H   UNL     1       0.290  13.612  24.370  0.00  0.00     0.162 HD
BRANCH  28  30
HETATM   30  C   UNL     1      -1.199  12.778  23.112  0.00  0.00     0.118 C 
HETATM   31  C   UNL     1      -1.799  11.739  24.041  0.00  0.00     0.026 C 
ENDBRANCH  28  30
ENDBRANCH   2  26
TORSDOF 7
ENDMDL
MODEL 6
REMARK VINA RESULT:    -7.503      2.955      5.790
REMARK INTER + INTRA:         -10.611
REMARK INTER:                  -9.203
REMARK INTRA:                  -1.408
REMARK UNBOUND:                -0.477
REMARK  7 active torsions:
REMARK  status: ('A' for Active; 'I' for Inactive)
REMARK    1  A    between atoms: O_2  and  C_3 
REMARK    2  A    between atoms: C_6  and  C_9 
REMARK    3  A    between atoms: C_10  and  C_11 
REMARK       I    between atoms: C_11  and  N_13 
REMARK    4  A    between atoms: N_13  and  C_14 
REMARK    5  A    between atoms: C_19  and  C_20 
REMARK    6  A    between atoms: C_24  and  O_25 
REMARK    7  A    between atoms: C_27  and  O_28 
ROOT
HETATM    1  C   UNL     1       7.406  12.340  23.965  0.00  0.00     0.039 C 
HETATM    2  C   UNL     1       8.509  12.070  24.780  0.00  0.00     0.131 C 
HETATM    3  N   UNL     1       8.229  12.701  25.957  0.00  0.00    -0.271 N 
HETATM    4  H   UNL     1       8.839  12.801  26.761  0.00  0.00     0.189 HD
HETATM    5  N   UNL     1       7.012  13.236  26.039  0.00  0.00    -0.173 NA
HETATM    6  C   UNL     1       6.502  13.110  24.804  0.00  0.00     0.103 C 
ENDROOT
BRANCH   6   7
HETATM    7  C   UNL     1       5.188  13.692  24.466  0.00  0.00     0.030 A 
HETATM    8  C   UNL     1       4.069  12.849  24.344  0.00  0.00     0.043 A 
HETATM    9  C   UNL     1       2.875  13.325  23.805  0.00  0.00     0.068 A 
HETATM   10 CL   UNL     1       1.587  12.223  23.490  0.00  0.00    -0.081 Cl
HETATM   11  C   UNL     1       2.746  14.672  23.473  0.00  0.00     0.090 A 
HETATM   12  C   UNL     1       3.797  15.552  23.695  0.00  0.00     0.075 A 
HETATM   13  C   UNL     1       5.019  15.060  24.164  0.00  0.00     0.081 A 
BRANCH  11  14
HETATM   14  O   UNL     1       1.614  15.174  22.892  0.00  0.00    -0.359 OA
HETATM   15  H   UNL     1       0.979  14.437  22.814  0.00  0.00     0.217 HD
ENDBRANCH  11  14
BRANCH  13  16
HETATM   16  O   UNL     1       6.069  15.936  24.266  0.00  0.00    -0.360 OA
HETATM   17  H   UNL     1       5.951  16.663  23.635  0.00  0.00     0.217 HD
ENDBRANCH  13  16
ENDBRANCH   6   7
BRANCH   1  18
HETATM   18  C   UNL     1       7.237  11.874  22.584  0.00  0.00    -0.021 A 
HETATM   19  C   UNL     1       6.311  10.871  22.270  0.00  0.00     0.015 A 
HETATM   20  C   UNL     1       6.072  10.483  20.943  0.00  0.00     0.037 A 
HETATM   21  C   UNL     1       6.715  11.132  19.895  0.00  0.00     0.068 A 
HETATM   22  C   UNL     1       7.636  12.136  20.190  0.00  0.00     0.037 A 
HETATM   23  C   UNL     1       7.921  12.480  21.519  0.00  0.00     0.015 A 
BRANCH  21  24
HETATM   24  O   UNL     1       6.525  10.886  18.562  0.00  0.00    -0.356 OA
HETATM   25  C   UNL     1       5.358  10.151  18.210  0.00  0.00     0.210 C 
ENDBRANCH  21  24
ENDBRANCH   1  18
BRANCH   2  26
HETATM   26  C   UNL     1       9.748  11.365  24.534  0.00  0.00     0.270 C 
HETATM   27  O   UNL     1      10.852  11.829  24.788  0.00  0.00    -0.266 OA
HETATM   28  N   UNL     1       9.623  10.109  23.953  0.00  0.00    -0.356 N 
HETATM   29  H   UNL     1       8.732   9.817  23.582  0.00  0.00     0.162 HD
BRANCH  28  30
HETATM   30  C   UNL     1      10.816   9.446  23.453  0.00  0.00     0.118 C 
HETATM   31  C   UNL     1      11.134   9.807  22.014  0.00  0.00     0.026 C 
ENDBRANCH  28  30
ENDBRANCH   2  26
TORSDOF 7
ENDMDL
MODEL 7
REMARK VINA RESULT:    -7.492      2.562      3.183
REMARK INTER + INTRA:         -10.597
REMARK INTER:                  -9.205
REMARK INTRA:                  -1.392
REMARK UNBOUND:                -0.477
REMARK  7 active torsions:
REMARK  status: ('A' for Active; 'I' for Inactive)
REMARK    1  A    between atoms: O_2  and  C_3 
REMARK    2  A    between atoms: C_6  and  C_9 
REMARK    3  A    between atoms: C_10  and  C_11 
REMARK       I    between atoms: C_11  and  N_13 
REMARK    4  A    between atoms: N_13  and  C_14 
REMARK    5  A    between atoms: C_19  and  C_20 
REMARK    6  A    between atoms: C_24  and  O_25 
REMARK    7  A    between atoms: C_27  and  O_28 
ROOT
HETATM    1  C   UNL     1       9.053  13.487  22.738  0.00  0.00     0.039 C 
HETATM    2  C   UNL     1      10.157  14.237  22.325  0.00  0.00     0.131 C 
HETATM    3  N   UNL     1      11.070  13.309  21.915  0.00  0.00    -0.271 N 
HETATM    4  H   UNL     1      12.028  13.475  21.630  0.00  0.00     0.189 HD
HETATM    5  N   UNL     1      10.630  12.053  21.892  0.00  0.00    -0.173 NA
HETATM    6  C   UNL     1       9.420  12.106  22.470  0.00  0.00     0.103 C 
ENDROOT
BRANCH   6   7
HETATM    7  C   UNL     1       8.651  10.871  22.728  0.00  0.00     0.030 A 
HETATM    8  C   UNL     1       7.391  10.703  22.125  0.00  0.00     0.043 A 
HETATM    9  C   UNL     1       6.544   9.670  22.523  0.00  0.00     0.068 A 
HETATM   10 CL   UNL     1       4.936   9.606  21.906  0.00  0.00    -0.081 Cl
HETATM   11  C   UNL     1       6.979   8.730  23.455  0.00  0.00     0.090 A 
HETATM   12  C   UNL     1       8.263   8.803  23.978  0.00  0.00     0.075 A 
HETATM   13  C   UNL     1       9.085   9.883  23.636  0.00  0.00     0.081 A 
BRANCH  11  14
HETATM   14  O   UNL     1       6.166   7.732  23.916  0.00  0.00    -0.359 OA
HETATM   15  H   UNL     1       5.561   7.494  23.188  0.00  0.00     0.217 HD
ENDBRANCH  11  14
BRANCH  13  16
HETATM   16  O   UNL     1      10.303   9.985  24.255  0.00  0.00    -0.360 OA
HETATM   17  H   UNL     1      10.739  10.809  23.987  0.00  0.00     0.217 HD
ENDBRANCH  13  16
ENDBRANCH   6   7
BRANCH   1  18
HETATM   18  C   UNL     1       7.802  14.039  23.271  0.00  0.00    -0.021 A 
HETATM   19  C   UNL     1       7.728  14.519  24.585  0.00  0.00     0.015 A 
HETATM   20  C   UNL     1       6.567  15.134  25.077  0.00  0.00     0.037 A 
HETATM   21  C   UNL     1       5.471  15.335  24.243  0.00  0.00     0.068 A 
HETATM   22  C   UNL     1       5.531  14.868  22.931  0.00  0.00     0.037 A 
HETATM   23  C   UNL     1       6.668  14.196  22.459  0.00  0.00     0.015 A 
BRANCH  21  24
HETATM   24  O   UNL     1       4.309  15.970  24.586  0.00  0.00    -0.356 OA
HETATM   25  C   UNL     1       3.228  15.141  24.998  0.00  0.00     0.210 C 
ENDBRANCH  21  24
ENDBRANCH   1  18
BRANCH   2  26
HETATM   26  C   UNL     1      10.425  15.659  22.345  0.00  0.00     0.270 C 
HETATM   27  O   UNL     1      10.907  16.243  23.306  0.00  0.00    -0.266 OA
HETATM   28  N   UNL     1      10.077  16.355  21.193  0.00  0.00    -0.356 N 
HETATM   29  H   UNL     1       9.517  15.902  20.488  0.00  0.00     0.162 HD
BRANCH  28  30
HETATM   30  C   UNL     1      10.086  17.808  21.223  0.00  0.00     0.118 C 
HETATM   31  C   UNL     1       8.976  18.424  20.392  0.00  0.00     0.026 C 
ENDBRANCH  28  30
ENDBRANCH   2  26
TORSDOF 7
ENDMDL
MODEL 8
REMARK VINA RESULT:    -7.484      3.297      6.299
REMARK INTER + INTRA:         -10.586
REMARK INTER:                  -9.296
REMARK INTRA:                  -1.290
REMARK UNBOUND:                -0.477
REMARK  7 active torsions:
REMARK  status: ('A' for Active; 'I' for Inactive)
REMARK    1  A    between atoms: O_2  and  C_3 
REMARK    2  A    between atoms: C_6  and  C_9 
REMARK    3  A    between atoms: C_10  and  C_11 
REMARK       I    between atoms: C_11  and  N_13 
REMARK    4  A    between atoms: N_13  and  C_14 
REMARK    5  A    between atoms: C_19  and  C_20 
REMARK    6  A    between atoms: C_24  and  O_25 
REMARK    7  A    between atoms: C_27  and  O_28 
ROOT
HETATM    1  C   UNL     1       6.704  11.910  21.236  0.00  0.00     0.039 C 
HETATM    2  C   UNL     1       6.917  11.423  19.944  0.00  0.00     0.131 C 
HETATM    3  N   UNL     1       8.171  11.851  19.617  0.00  0.00    -0.271 N 
HETATM    4  H   UNL     1       8.636  11.763  18.720  0.00  0.00     0.189 HD
HETATM    5  N   UNL     1       8.842  12.445  20.602  0.00  0.00    -0.173 NA
HETATM    6  C   UNL     1       7.946  12.578  21.592  0.00  0.00     0.103 C 
ENDROOT
BRANCH   6   7
HETATM    7  C   UNL     1       8.292  13.300  22.833  0.00  0.00     0.030 A 
HETATM    8  C   UNL     1       9.242  12.749  23.711  0.00  0.00     0.043 A 
HETATM    9  C   UNL     1       9.421  13.279  24.988  0.00  0.00     0.068 A 
HETATM   10 CL   UNL     1      10.451  12.466  26.107  0.00  0.00    -0.081 Cl
HETATM   11  C   UNL     1       8.729  14.425  25.373  0.00  0.00     0.090 A 
HETATM   12  C   UNL     1       7.872  15.058  24.483  0.00  0.00     0.075 A 
HETATM   13  C   UNL     1       7.635  14.484  23.229  0.00  0.00     0.081 A 
BRANCH  11  14
HETATM   14  O   UNL     1       8.831  14.949  26.632  0.00  0.00    -0.359 OA
HETATM   15  H   UNL     1       8.479  14.282  27.252  0.00  0.00     0.217 HD
ENDBRANCH  11  14
BRANCH  13  16
HETATM   16  O   UNL     1       6.700  15.073  22.418  0.00  0.00    -0.360 OA
HETATM   17  H   UNL     1       6.890  14.862  21.491  0.00  0.00     0.217 HD
ENDBRANCH  13  16
ENDBRANCH   6   7
BRANCH   1  18
HETATM   18  C   UNL     1       5.484  11.712  22.028  0.00  0.00    -0.021 A 
HETATM   19  C   UNL     1       4.362  12.530  21.840  0.00  0.00     0.015 A 
HETATM   20  C   UNL     1       3.160  12.293  22.522  0.00  0.00     0.037 A 
HETATM   21  C   UNL     1       3.036  11.195  23.367  0.00  0.00     0.068 A 
HETATM   22  C   UNL     1       4.142  10.369  23.561  0.00  0.00     0.037 A 
HETATM   23  C   UNL     1       5.363  10.643  22.928  0.00  0.00     0.015 A 
BRANCH  21  24
HETATM   24  O   UNL     1       1.904  10.825  24.042  0.00  0.00    -0.356 OA
HETATM   25  C   UNL     1       1.902   9.523  24.616  0.00  0.00     0.210 C 
ENDBRANCH  21  24
ENDBRANCH   1  18
BRANCH   2  26
HETATM   26  C   UNL     1       6.066  10.690  19.031  0.00  0.00     0.270 C 
HETATM   27  O   UNL     1       5.315  11.228  18.228  0.00  0.00    -0.266 OA
HETATM   28  N   UNL     1       6.127   9.306  19.129  0.00  0.00    -0.356 N 
HETATM   29  H   UNL     1       6.603   8.882  19.909  0.00  0.00     0.162 HD
BRANCH  28  30
HETATM   30  C   UNL     1       5.134   8.509  18.426  0.00  0.00     0.118 C 
HETATM   31  C   UNL     1       5.611   8.039  17.064  0.00  0.00     0.026 C 
ENDBRANCH  28  30
ENDBRANCH   2  26
TORSDOF 7
ENDMDL
MODEL 9
REMARK VINA RESULT:    -7.409      2.110      2.559
REMARK INTER + INTRA:         -10.485
REMARK INTER:                 -10.008
REMARK INTRA:                  -0.477
REMARK UNBOUND:                -0.477
REMARK  7 active torsions:
REMARK  status: ('A' for Active; 'I' for Inactive)
REMARK    1  A    between atoms: O_2  and  C_3 
REMARK    2  A    between atoms: C_6  and  C_9 
REMARK    3  A    between atoms: C_10  and  C_11 
REMARK       I    between atoms: C_11  and  N_13 
REMARK    4  A    between atoms: N_13  and  C_14 
REMARK    5  A    between atoms: C_19  and  C_20 
REMARK    6  A    between atoms: C_24  and  O_25 
REMARK    7  A    between atoms: C_27  and  O_28 
ROOT
HETATM    1  C   UNL     1       7.643  13.252  21.699  0.00  0.00     0.039 C 
HETATM    2  C   UNL     1       8.908  13.818  21.526  0.00  0.00     0.131 C 
HETATM    3  N   UNL     1       9.636  12.849  20.900  0.00  0.00    -0.271 N 
HETATM    4  H   UNL     1      10.628  12.865  20.689  0.00  0.00     0.189 HD
HETATM    5  N   UNL     1       8.947  11.771  20.531  0.00  0.00    -0.173 NA
HETATM    6  C   UNL     1       7.733  11.941  21.078  0.00  0.00     0.103 C 
ENDROOT
BRANCH   6   7
HETATM    7  C   UNL     1       6.705  10.885  20.978  0.00  0.00     0.030 A 
HETATM    8  C   UNL     1       6.291  10.212  22.142  0.00  0.00     0.043 A 
HETATM    9  C   UNL     1       5.503   9.065  22.057  0.00  0.00     0.068 A 
HETATM   10 CL   UNL     1       5.174   8.154  23.483  0.00  0.00    -0.081 Cl
HETATM   11  C   UNL     1       5.034   8.629  20.819  0.00  0.00     0.090 A 
HETATM   12  C   UNL     1       5.329   9.344  19.666  0.00  0.00     0.075 A 
HETATM   13  C   UNL     1       6.182  10.451  19.742  0.00  0.00     0.081 A 
BRANCH  11  14
HETATM   14  O   UNL     1       4.303   7.482  20.680  0.00  0.00    -0.359 OA
HETATM   15  H   UNL     1       3.365   7.720  20.807  0.00  0.00     0.217 HD
ENDBRANCH  11  14
BRANCH  13  16
HETATM   16  O   UNL     1       6.542  11.066  18.572  0.00  0.00    -0.360 OA
HETATM   17  H   UNL     1       7.504  11.019  18.460  0.00  0.00     0.217 HD
ENDBRANCH  13  16
ENDBRANCH   6   7
BRANCH   1  18
HETATM   18  C   UNL     1       6.497  13.912  22.336  0.00  0.00    -0.021 A 
HETATM   19  C   UNL     1       5.200  13.403  22.190  0.00  0.00     0.015 A 
HETATM   20  C   UNL     1       4.110  13.968  22.868  0.00  0.00     0.037 A 
HETATM   21  C   UNL     1       4.304  15.022  23.755  0.00  0.00     0.068 A 
HETATM   22  C   UNL     1       5.590  15.537  23.916  0.00  0.00     0.037 A 
HETATM   23  C   UNL     1       6.669  15.012  23.189  0.00  0.00     0.015 A 
BRANCH  21  24
HETATM   24  O   UNL     1       3.336  15.619  24.516  0.00  0.00    -0.356 OA
HETATM   25  C   UNL     1       2.545  14.761  25.329  0.00  0.00     0.210 C 
ENDBRANCH  21  24
ENDBRANCH   1  18
BRANCH   2  26
HETATM   26  C   UNL     1       9.466  15.090  21.932  0.00  0.00     0.270 C 
HETATM   27  O   UNL     1      10.027  15.272  23.005  0.00  0.00    -0.266 OA
HETATM   28  N   UNL     1       9.307  16.135  21.029  0.00  0.00    -0.356 N 
HETATM   29  H   UNL     1       8.690  16.023  20.241  0.00  0.00     0.162 HD
BRANCH  28  30
HETATM   30  C   UNL     1       9.618  17.488  21.461  0.00  0.00     0.118 C 
HETATM   31  C   UNL     1       9.347  18.527  20.389  0.00  0.00     0.026 C 
ENDBRANCH  28  30
ENDBRANCH   2  26
TORSDOF 7
ENDMDL
