MODEL 1
REMARK VINA RESULT:    -7.517      0.000      0.000
REMARK INTER + INTRA:         -12.077
REMARK INTER:                 -11.318
REMARK INTRA:                  -0.759
REMARK UNBOUND:                -1.044
REMARK  9 active torsions:
REMARK  status: ('A' for Active; 'I' for Inactive)
REMARK    1  A    between atoms: O_1  and  C_2 
REMARK    2  A    between atoms: C_2  and  C_5 
REMARK    3  A    between atoms: C_5  and  C_6 
REMARK    4  A    between atoms: C_6  and  C_7 
REMARK    5  A    between atoms: C_7  and  C_8 
REMARK    6  A    between atoms: N_10  and  C_19 
REMARK    7  A    between atoms: C_14  and  N_15 
REMARK    8  A    between atoms: C_19  and  C_20 
REMARK    9  A    between atoms: C_23  and  O_28 
ROOT
HETATM    1  C   UNL     1      -1.549  10.741  24.132  0.00  0.00     0.050 A 
HETATM    2  C   UNL     1      -2.025  11.615  23.180  0.00  0.00     0.114 A 
HETATM    3  N   UNL     1      -3.098  12.289  23.722  0.00  0.00    -0.334 N 
HETATM    4  C   UNL     1      -3.335  11.813  24.989  0.00  0.00     0.148 A 
HETATM    5  C   UNL     1      -2.360  10.868  25.288  0.00  0.00     0.071 A 
HETATM    6  N   UNL     1      -4.336  12.184  25.803  0.00  0.00    -0.200 NA
HETATM    7  C   UNL     1      -4.333  11.556  26.986  0.00  0.00     0.202 A 
HETATM    8  N   UNL     1      -3.436  10.667  27.413  0.00  0.00    -0.205 NA
HETATM    9  C   UNL     1      -2.462  10.324  26.560  0.00  0.00     0.144 A 
HETATM   10 CL   UNL     1      -1.323   9.183  27.093  0.00  0.00    -0.061 Cl
ENDROOT
BRANCH   3  11
HETATM   11  C   UNL     1      -3.934  13.230  22.983  0.00  0.00     0.190 C 
BRANCH  11  12
HETATM   12  C   UNL     1      -3.145  14.268  22.219  0.00  0.00     0.061 A 
HETATM   13  C   UNL     1      -2.196  15.121  22.800  0.00  0.00    -0.002 A 
HETATM   14  C   UNL     1      -1.828  15.047  24.263  0.00  0.00     0.053 C 
HETATM   15  C   UNL     1      -1.553  16.111  21.995  0.00  0.00     0.083 A 
HETATM   16  C   UNL     1      -1.893  16.227  20.643  0.00  0.00    -0.011 A 
HETATM   17  C   UNL     1      -2.853  15.325  20.177  0.00  0.00     0.126 A 
HETATM   18  C   UNL     1      -1.399  17.194  19.608  0.00  0.00     0.052 C 
HETATM   19  N   UNL     1      -3.470  14.372  20.908  0.00  0.00    -0.263 NA
BRANCH  15  20
HETATM   20  O   UNL     1      -0.659  16.845  22.726  0.00  0.00    -0.355 OA
HETATM   21  C   UNL     1       0.727  16.854  22.467  0.00  0.00     0.210 C 
ENDBRANCH  15  20
ENDBRANCH  11  12
ENDBRANCH   3  11
BRANCH   1  22
HETATM   22  C   UNL     1      -0.444   9.864  23.933  0.00  0.00    -0.064 C 
BRANCH  22  23
HETATM   23  C   UNL     1       0.542   9.026  23.775  0.00  0.00    -0.098 C 
BRANCH  23  24
HETATM   24  C   UNL     1       1.691   8.048  23.592  0.00  0.00     0.131 C 
BRANCH  24  25
HETATM   25  C   UNL     1       1.253   6.622  24.006  0.00  0.00     0.061 C 
HETATM   26  C   UNL     1       0.709   6.587  25.440  0.00  0.00     0.046 C 
HETATM   27  C   UNL     1       2.396   5.610  23.848  0.00  0.00     0.046 C 
BRANCH  25  28
HETATM   28  O   UNL     1       0.193   6.220  23.127  0.00  0.00    -0.390 OA
HETATM   29  H   UNL     1      -0.647   6.508  23.527  0.00  0.00     0.210 HD
ENDBRANCH  25  28
ENDBRANCH  24  25
ENDBRANCH  23  24
ENDBRANCH  22  23
ENDBRANCH   1  22
BRANCH   7  30
HETATM   30  N   UNL     1      -5.336  11.883  27.876  0.00  0.00    -0.271 NA
HETATM   31  H   UNL     1      -6.242  11.675  27.484  0.00  0.00     0.127 HD
HETATM   32  H   UNL     1      -5.186  12.816  28.235  0.00  0.00     0.127 HD
ENDBRANCH   7  30
TORSDOF 9
ENDMDL
MODEL 2
REMARK VINA RESULT:    -7.128      3.141      7.234
REMARK INTER + INTRA:         -11.506
REMARK INTER:                 -10.604
REMARK INTRA:                  -0.902
REMARK UNBOUND:                -1.044
REMARK  9 active torsions:
REMARK  status: ('A' for Active; 'I' for Inactive)
REMARK    1  A    between atoms: O_1  and  C_2 
REMARK    2  A    between atoms: C_2  and  C_5 
REMARK    3  A    between atoms: C_5  and  C_6 
REMARK    4  A    between atoms: C_6  and  C_7 
REMARK    5  A    between atoms: C_7  and  C_8 
REMARK    6  A    between atoms: N_10  and  C_19 
REMARK    7  A    between atoms: C_14  and  N_15 
REMARK    8  A    between atoms: C_19  and  C_20 
REMARK    9  A    between atoms: C_23  and  O_28 
ROOT
HETATM    1  C   UNL     1      -0.314  13.084  21.861  0.00  0.00     0.050 A 
HETATM    2  C   UNL     1      -0.521  11.822  22.372  0.00  0.00     0.114 A 
HETATM    3  N   UNL     1      -1.869  11.678  22.613  0.00  0.00    -0.334 N 
HETATM    4  C   UNL     1      -2.509  12.856  22.308  0.00  0.00     0.148 A 
HETATM    5  C   UNL     1      -1.567  13.744  21.801  0.00  0.00     0.071 A 
HETATM    6  N   UNL     1      -3.816  13.116  22.473  0.00  0.00    -0.200 NA
HETATM    7  C   UNL     1      -4.174  14.350  22.095  0.00  0.00     0.202 A 
HETATM    8  N   UNL     1      -3.383  15.278  21.555  0.00  0.00    -0.205 NA
HETATM    9  C   UNL     1      -2.087  14.971  21.419  0.00  0.00     0.144 A 
HETATM   10 CL   UNL     1      -1.072  16.154  20.743  0.00  0.00    -0.061 Cl
ENDROOT
BRANCH   3  11
HETATM   11  C   UNL     1      -2.469  10.512  23.253  0.00  0.00     0.190 C 
BRANCH  11  12
HETATM   12  C   UNL     1      -2.003  10.297  24.675  0.00  0.00     0.061 A 
HETATM   13  C   UNL     1      -0.947   9.450  25.039  0.00  0.00    -0.002 A 
HETATM   14  C   UNL     1      -0.125   8.697  24.020  0.00  0.00     0.053 C 
HETATM   15  C   UNL     1      -0.631   9.272  26.421  0.00  0.00     0.083 A 
HETATM   16  C   UNL     1      -1.392   9.932  27.392  0.00  0.00    -0.011 A 
HETATM   17  C   UNL     1      -2.420  10.746  26.911  0.00  0.00     0.126 A 
HETATM   18  C   UNL     1      -1.290   9.883  28.888  0.00  0.00     0.052 C 
HETATM   19  N   UNL     1      -2.736  10.944  25.613  0.00  0.00    -0.263 NA
BRANCH  15  20
HETATM   20  O   UNL     1       0.426   8.418  26.586  0.00  0.00    -0.355 OA
HETATM   21  C   UNL     1       1.673   8.825  27.103  0.00  0.00     0.210 C 
ENDBRANCH  15  20
ENDBRANCH  11  12
ENDBRANCH   3  11
BRANCH   1  22
HETATM   22  C   UNL     1       0.962  13.600  21.494  0.00  0.00    -0.064 C 
BRANCH  22  23
HETATM   23  C   UNL     1       2.150  14.028  21.169  0.00  0.00    -0.098 C 
BRANCH  23  24
HETATM   24  C   UNL     1       3.535  14.527  20.791  0.00  0.00     0.131 C 
BRANCH  24  25
HETATM   25  C   UNL     1       4.214  15.200  22.009  0.00  0.00     0.061 C 
HETATM   26  C   UNL     1       5.743  15.206  21.878  0.00  0.00     0.046 C 
HETATM   27  C   UNL     1       3.798  14.535  23.329  0.00  0.00     0.046 C 
BRANCH  25  28
HETATM   28  O   UNL     1       3.775  16.565  22.053  0.00  0.00    -0.390 OA
HETATM   29  H   UNL     1       2.831  16.564  22.289  0.00  0.00     0.210 HD
ENDBRANCH  25  28
ENDBRANCH  24  25
ENDBRANCH  23  24
ENDBRANCH  22  23
ENDBRANCH   1  22
BRANCH   7  30
HETATM   30  N   UNL     1      -5.504  14.692  22.239  0.00  0.00    -0.271 NA
HETATM   31  H   UNL     1      -5.667  15.632  21.909  0.00  0.00     0.127 HD
HETATM   32  H   UNL     1      -5.818  14.464  23.172  0.00  0.00     0.127 HD
ENDBRANCH   7  30
TORSDOF 9
ENDMDL
MODEL 3
REMARK VINA RESULT:    -7.084      3.280      7.847
REMARK INTER + INTRA:         -11.441
REMARK INTER:                 -10.690
REMARK INTRA:                  -0.751
REMARK UNBOUND:                -1.044
REMARK  9 active torsions:
REMARK  status: ('A' for Active; 'I' for Inactive)
REMARK    1  A    between atoms: O_1  and  C_2 
REMARK    2  A    between atoms: C_2  and  C_5 
REMARK    3  A    between atoms: C_5  and  C_6 
REMARK    4  A    between atoms: C_6  and  C_7 
REMARK    5  A    between atoms: C_7  and  C_8 
REMARK    6  A    between atoms: N_10  and  C_19 
REMARK    7  A    between atoms: C_14  and  N_15 
REMARK    8  A    between atoms: C_19  and  C_20 
REMARK    9  A    between atoms: C_23  and  O_28 
ROOT
HETATM    1  C   UNL     1      -0.014  12.353  23.167  0.00  0.00     0.050 A 
HETATM    2  C   UNL     1       0.410  11.837  24.372  0.00  0.00     0.114 A 
HETATM    3  N   UNL     1      -0.685  11.297  25.010  0.00  0.00    -0.334 N 
HETATM    4  C   UNL     1      -1.805  11.513  24.244  0.00  0.00     0.148 A 
HETATM    5  C   UNL     1      -1.413  12.141  23.067  0.00  0.00     0.071 A 
HETATM    6  N   UNL     1      -3.065  11.184  24.569  0.00  0.00    -0.200 NA
HETATM    7  C   UNL     1      -3.968  11.514  23.636  0.00  0.00     0.202 A 
HETATM    8  N   UNL     1      -3.721  12.076  22.453  0.00  0.00    -0.205 NA
HETATM    9  C   UNL     1      -2.448  12.391  22.180  0.00  0.00     0.144 A 
HETATM   10 CL   UNL     1      -2.129  13.119  20.679  0.00  0.00    -0.061 Cl
ENDROOT
BRANCH   3  11
HETATM   11  C   UNL     1      -0.657  10.744  26.361  0.00  0.00     0.190 C 
BRANCH  11  12
HETATM   12  C   UNL     1      -0.572   9.235  26.394  0.00  0.00     0.061 A 
HETATM   13  C   UNL     1      -0.577   8.471  27.569  0.00  0.00    -0.002 A 
HETATM   14  C   UNL     1      -0.722   9.091  28.938  0.00  0.00     0.053 C 
HETATM   15  C   UNL     1      -0.427   7.052  27.487  0.00  0.00     0.083 A 
HETATM   16  C   UNL     1      -0.260   6.448  26.237  0.00  0.00    -0.011 A 
HETATM   17  C   UNL     1      -0.268   7.310  25.138  0.00  0.00     0.126 A 
HETATM   18  C   UNL     1      -0.047   5.005  25.889  0.00  0.00     0.052 C 
HETATM   19  N   UNL     1      -0.419   8.652  25.180  0.00  0.00    -0.263 NA
BRANCH  15  20
HETATM   20  O   UNL     1      -0.459   6.474  28.727  0.00  0.00    -0.355 OA
HETATM   21  C   UNL     1       0.642   5.798  29.293  0.00  0.00     0.210 C 
ENDBRANCH  15  20
ENDBRANCH  11  12
ENDBRANCH   3  11
BRANCH   1  22
HETATM   22  C   UNL     1       0.839  13.002  22.229  0.00  0.00    -0.064 C 
BRANCH  22  23
HETATM   23  C   UNL     1       1.628  13.631  21.404  0.00  0.00    -0.098 C 
BRANCH  23  24
HETATM   24  C   UNL     1       2.549  14.365  20.443  0.00  0.00     0.131 C 
BRANCH  24  25
HETATM   25  C   UNL     1       3.512  15.292  21.224  0.00  0.00     0.061 C 
HETATM   26  C   UNL     1       4.294  14.525  22.298  0.00  0.00     0.046 C 
HETATM   27  C   UNL     1       2.770  16.478  21.855  0.00  0.00     0.046 C 
BRANCH  25  28
HETATM   28  O   UNL     1       4.461  15.822  20.288  0.00  0.00    -0.390 OA
HETATM   29  H   UNL     1       4.506  15.209  19.534  0.00  0.00     0.210 HD
ENDBRANCH  25  28
ENDBRANCH  24  25
ENDBRANCH  23  24
ENDBRANCH  22  23
ENDBRANCH   1  22
BRANCH   7  30
HETATM   30  N   UNL     1      -5.289  11.210  23.902  0.00  0.00    -0.271 NA
HETATM   31  H   UNL     1      -5.895  11.623  23.209  0.00  0.00     0.127 HD
HETATM   32  H   UNL     1      -5.495  11.397  24.873  0.00  0.00     0.127 HD
ENDBRANCH   7  30
TORSDOF 9
ENDMDL
MODEL 4
REMARK VINA RESULT:    -7.068      1.954      2.442
REMARK INTER + INTRA:         -11.418
REMARK INTER:                 -10.374
REMARK INTRA:                  -1.044
REMARK UNBOUND:                -1.044
REMARK  9 active torsions:
REMARK  status: ('A' for Active; 'I' for Inactive)
REMARK    1  A    between atoms: O_1  and  C_2 
REMARK    2  A    between atoms: C_2  and  C_5 
REMARK    3  A    between atoms: C_5  and  C_6 
REMARK    4  A    between atoms: C_6  and  C_7 
REMARK    5  A    between atoms: C_7  and  C_8 
REMARK    6  A    between atoms: N_10  and  C_19 
REMARK    7  A    between atoms: C_14  and  N_15 
REMARK    8  A    between atoms: C_19  and  C_20 
REMARK    9  A    between atoms: C_23  and  O_28 
ROOT
HETATM    1  C   UNL     1      -0.277  11.473  25.329  0.00  0.00     0.050 A 
HETATM    2  C   UNL     1      -0.245  12.768  24.859  0.00  0.00     0.114 A 
HETATM    3  N   UNL     1      -1.388  13.404  25.290  0.00  0.00    -0.334 N 
HETATM    4  C   UNL     1      -2.167  12.509  25.984  0.00  0.00     0.148 A 
HETATM    5  C   UNL     1      -1.482  11.301  26.057  0.00  0.00     0.071 A 
HETATM    6  N   UNL     1      -3.383  12.748  26.501  0.00  0.00    -0.200 NA
HETATM    7  C   UNL     1      -3.921  11.693  27.128  0.00  0.00     0.202 A 
HETATM    8  N   UNL     1      -3.355  10.499  27.306  0.00  0.00    -0.205 NA
HETATM    9  C   UNL     1      -2.145  10.310  26.764  0.00  0.00     0.144 A 
HETATM   10 CL   UNL     1      -1.424   8.787  26.977  0.00  0.00    -0.061 Cl
ENDROOT
BRANCH   3  11
HETATM   11  C   UNL     1      -1.766  14.761  24.908  0.00  0.00     0.190 C 
BRANCH  11  12
HETATM   12  C   UNL     1      -2.166  14.890  23.456  0.00  0.00     0.061 A 
HETATM   13  C   UNL     1      -1.420  15.583  22.492  0.00  0.00    -0.002 A 
HETATM   14  C   UNL     1      -0.096  16.235  22.808  0.00  0.00     0.053 C 
HETATM   15  C   UNL     1      -1.925  15.697  21.159  0.00  0.00     0.083 A 
HETATM   16  C   UNL     1      -3.163  15.130  20.841  0.00  0.00    -0.011 A 
HETATM   17  C   UNL     1      -3.816  14.467  21.883  0.00  0.00     0.126 A 
HETATM   18  C   UNL     1      -3.920  15.142  19.546  0.00  0.00     0.052 C 
HETATM   19  N   UNL     1      -3.362  14.332  23.148  0.00  0.00    -0.263 NA
BRANCH  15  20
HETATM   20  O   UNL     1      -1.066  16.400  20.359  0.00  0.00    -0.355 OA
HETATM   21  C   UNL     1      -1.363  17.678  19.843  0.00  0.00     0.210 C 
ENDBRANCH  15  20
ENDBRANCH  11  12
ENDBRANCH   3  11
BRANCH   1  22
HETATM   22  C   UNL     1       0.738  10.505  25.081  0.00  0.00    -0.064 C 
BRANCH  22  23
HETATM   23  C   UNL     1       1.640   9.586  24.879  0.00  0.00    -0.098 C 
BRANCH  23  24
HETATM   24  C   UNL     1       2.691   8.514  24.644  0.00  0.00     0.131 C 
BRANCH  24  25
HETATM   25  C   UNL     1       3.443   8.202  25.961  0.00  0.00     0.061 C 
HETATM   26  C   UNL     1       4.361   6.982  25.817  0.00  0.00     0.046 C 
HETATM   27  C   UNL     1       2.473   8.000  27.133  0.00  0.00     0.046 C 
BRANCH  25  28
HETATM   28  O   UNL     1       4.268   9.334  26.269  0.00  0.00    -0.390 OA
HETATM   29  H   UNL     1       4.270   9.443  27.236  0.00  0.00     0.210 HD
ENDBRANCH  25  28
ENDBRANCH  24  25
ENDBRANCH  23  24
ENDBRANCH  22  23
ENDBRANCH   1  22
BRANCH   7  30
HETATM   30  N   UNL     1      -5.174  11.862  27.683  0.00  0.00    -0.271 NA
HETATM   31  H   UNL     1      -5.548  12.769  27.449  0.00  0.00     0.127 HD
HETATM   32  H   UNL     1      -5.155  11.602  28.659  0.00  0.00     0.127 HD
ENDBRANCH   7  30
TORSDOF 9
ENDMDL
MODEL 5
REMARK VINA RESULT:    -6.961      3.412      7.693
REMARK INTER + INTRA:         -11.261
REMARK INTER:                 -10.122
REMARK INTRA:                  -1.140
REMARK UNBOUND:                -1.044
REMARK  9 active torsions:
REMARK  status: ('A' for Active; 'I' for Inactive)
REMARK    1  A    between atoms: O_1  and  C_2 
REMARK    2  A    between atoms: C_2  and  C_5 
REMARK    3  A    between atoms: C_5  and  C_6 
REMARK    4  A    between atoms: C_6  and  C_7 
REMARK    5  A    between atoms: C_7  and  C_8 
REMARK    6  A    between atoms: N_10  and  C_19 
REMARK    7  A    between atoms: C_14  and  N_15 
REMARK    8  A    between atoms: C_19  and  C_20 
REMARK    9  A    between atoms: C_23  and  O_28 
ROOT
HETATM    1  C   UNL     1       0.051  12.788  23.642  0.00  0.00     0.050 A 
HETATM    2  C   UNL     1      -0.414  11.495  23.735  0.00  0.00     0.114 A 
HETATM    3  N   UNL     1      -1.253  11.423  24.825  0.00  0.00    -0.334 N 
HETATM    4  C   UNL     1      -1.283  12.646  25.451  0.00  0.00     0.148 A 
HETATM    5  C   UNL     1      -0.504  13.531  24.714  0.00  0.00     0.071 A 
HETATM    6  N   UNL     1      -1.941  12.943  26.583  0.00  0.00    -0.200 NA
HETATM    7  C   UNL     1      -1.795  14.215  26.976  0.00  0.00     0.202 A 
HETATM    8  N   UNL     1      -1.117  15.171  26.341  0.00  0.00    -0.205 NA
HETATM    9  C   UNL     1      -0.472  14.822  25.221  0.00  0.00     0.144 A 
HETATM   10 CL   UNL     1       0.404  16.032  24.414  0.00  0.00    -0.061 Cl
ENDROOT
BRANCH   3  11
HETATM   11  C   UNL     1      -1.863  10.189  25.312  0.00  0.00     0.190 C 
BRANCH  11  12
HETATM   12  C   UNL     1      -0.979   9.414  26.262  0.00  0.00     0.061 A 
HETATM   13  C   UNL     1      -0.090   8.405  25.866  0.00  0.00    -0.002 A 
HETATM   14  C   UNL     1       0.110   8.025  24.419  0.00  0.00     0.053 C 
HETATM   15  C   UNL     1       0.652   7.691  26.858  0.00  0.00     0.083 A 
HETATM   16  C   UNL     1       0.467   7.998  28.210  0.00  0.00    -0.011 A 
HETATM   17  C   UNL     1      -0.446   9.019  28.484  0.00  0.00     0.126 A 
HETATM   18  C   UNL     1       1.086   7.379  29.427  0.00  0.00     0.052 C 
HETATM   19  N   UNL     1      -1.153   9.719  27.571  0.00  0.00    -0.263 NA
BRANCH  15  20
HETATM   20  O   UNL     1       1.468   6.751  26.289  0.00  0.00    -0.355 OA
HETATM   21  C   UNL     1       2.875   6.816  26.344  0.00  0.00     0.210 C 
ENDBRANCH  15  20
ENDBRANCH  11  12
ENDBRANCH   3  11
BRANCH   1  22
HETATM   22  C   UNL     1       0.951  13.245  22.638  0.00  0.00    -0.064 C 
BRANCH  22  23
HETATM   23  C   UNL     1       1.760  13.711  21.727  0.00  0.00    -0.098 C 
BRANCH  23  24
HETATM   24  C   UNL     1       2.704  14.254  20.666  0.00  0.00     0.131 C 
BRANCH  24  25
HETATM   25  C   UNL     1       3.678  15.282  21.290  0.00  0.00     0.061 C 
HETATM   26  C   UNL     1       4.583  14.639  22.349  0.00  0.00     0.046 C 
HETATM   27  C   UNL     1       2.930  16.481  21.890  0.00  0.00     0.046 C 
BRANCH  25  28
HETATM   28  O   UNL     1       4.520  15.777  20.240  0.00  0.00    -0.390 OA
HETATM   29  H   UNL     1       3.961  16.293  19.632  0.00  0.00     0.210 HD
ENDBRANCH  25  28
ENDBRANCH  24  25
ENDBRANCH  23  24
ENDBRANCH  22  23
ENDBRANCH   1  22
BRANCH   7  30
HETATM   30  N   UNL     1      -2.441  14.595  28.136  0.00  0.00    -0.271 NA
HETATM   31  H   UNL     1      -2.023  15.429  28.519  0.00  0.00     0.127 HD
HETATM   32  H   UNL     1      -2.540  13.798  28.750  0.00  0.00     0.127 HD
ENDBRANCH   7  30
TORSDOF 9
ENDMDL
MODEL 6
REMARK VINA RESULT:    -6.927      3.536      7.915
REMARK INTER + INTRA:         -11.211
REMARK INTER:                 -10.110
REMARK INTRA:                  -1.101
REMARK UNBOUND:                -1.044
REMARK  9 active torsions:
REMARK  status: ('A' for Active; 'I' for Inactive)
REMARK    1  A    between atoms: O_1  and  C_2 
REMARK    2  A    between atoms: C_2  and  C_5 
REMARK    3  A    between atoms: C_5  and  C_6 
REMARK    4  A    between atoms: C_6  and  C_7 
REMARK    5  A    between atoms: C_7  and  C_8 
REMARK    6  A    between atoms: N_10  and  C_19 
REMARK    7  A    between atoms: C_14  and  N_15 
REMARK    8  A    between atoms: C_19  and  C_20 
REMARK    9  A    between atoms: C_23  and  O_28 
ROOT
HETATM    1  C   UNL     1       0.583  12.367  24.309  0.00  0.00     0.050 A 
HETATM    2  C   UNL     1       0.726  11.042  24.656  0.00  0.00     0.114 A 
HETATM    3  N   UNL     1      -0.513  10.565  25.024  0.00  0.00    -0.334 N 
HETATM    4  C   UNL     1      -1.427  11.589  24.961  0.00  0.00     0.148 A 
HETATM    5  C   UNL     1      -0.779  12.722  24.482  0.00  0.00     0.071 A 
HETATM    6  N   UNL     1      -2.723  11.520  25.306  0.00  0.00    -0.200 NA
HETATM    7  C   UNL     1      -3.387  12.673  25.148  0.00  0.00     0.202 A 
HETATM    8  N   UNL     1      -2.897  13.813  24.660  0.00  0.00    -0.205 NA
HETATM    9  C   UNL     1      -1.598  13.832  24.338  0.00  0.00     0.144 A 
HETATM   10 CL   UNL     1      -0.965  15.285  23.728  0.00  0.00    -0.061 Cl
ENDROOT
BRANCH   3  11
HETATM   11  C   UNL     1      -0.753   9.226  25.555  0.00  0.00     0.190 C 
BRANCH  11  12
HETATM   12  C   UNL     1      -0.221   9.029  26.956  0.00  0.00     0.061 A 
HETATM   13  C   UNL     1       0.985   8.380  27.257  0.00  0.00    -0.002 A 
HETATM   14  C   UNL     1       1.909   7.850  26.187  0.00  0.00     0.053 C 
HETATM   15  C   UNL     1       1.361   8.192  28.623  0.00  0.00     0.083 A 
HETATM   16  C   UNL     1       0.513   8.644  29.640  0.00  0.00    -0.011 A 
HETATM   17  C   UNL     1      -0.661   9.273  29.219  0.00  0.00     0.126 A 
HETATM   18  C   UNL     1       0.657   8.537  31.129  0.00  0.00     0.052 C 
HETATM   19  N   UNL     1      -1.040   9.476  27.939  0.00  0.00    -0.263 NA
BRANCH  15  20
HETATM   20  O   UNL     1       2.563   7.547  28.725  0.00  0.00    -0.355 OA
HETATM   21  C   UNL     1       3.722   8.152  29.254  0.00  0.00     0.210 C 
ENDBRANCH  15  20
ENDBRANCH  11  12
ENDBRANCH   3  11
BRANCH   1  22
HETATM   22  C   UNL     1       1.654  13.202  23.878  0.00  0.00    -0.064 C 
BRANCH  22  23
HETATM   23  C   UNL     1       2.656  13.926  23.464  0.00  0.00    -0.098 C 
BRANCH  23  24
HETATM   24  C   UNL     1       3.824  14.770  22.980  0.00  0.00     0.131 C 
BRANCH  24  25
HETATM   25  C   UNL     1       3.502  15.390  21.599  0.00  0.00     0.061 C 
HETATM   26  C   UNL     1       2.589  16.616  21.725  0.00  0.00     0.046 C 
HETATM   27  C   UNL     1       2.879  14.361  20.646  0.00  0.00     0.046 C 
BRANCH  25  28
HETATM   28  O   UNL     1       4.739  15.826  21.018  0.00  0.00    -0.390 OA
HETATM   29  H   UNL     1       4.536  16.545  20.395  0.00  0.00     0.210 HD
ENDBRANCH  25  28
ENDBRANCH  24  25
ENDBRANCH  23  24
ENDBRANCH  22  23
ENDBRANCH   1  22
BRANCH   7  30
HETATM   30  N   UNL     1      -4.726  12.680  25.486  0.00  0.00    -0.271 NA
HETATM   31  H   UNL     1      -4.999  13.586  25.838  0.00  0.00     0.127 HD
HETATM   32  H   UNL     1      -4.940  11.874  26.056  0.00  0.00     0.127 HD
ENDBRANCH   7  30
TORSDOF 9
ENDMDL
MODEL 7
REMARK VINA RESULT:    -6.924      3.556      7.815
REMARK INTER + INTRA:         -11.206
REMARK INTER:                 -10.176
REMARK INTRA:                  -1.030
REMARK UNBOUND:                -1.044
REMARK  9 active torsions:
REMARK  status: ('A' for Active; 'I' for Inactive)
REMARK    1  A    between atoms: O_1  and  C_2 
REMARK    2  A    between atoms: C_2  and  C_5 
REMARK    3  A    between atoms: C_5  and  C_6 
REMARK    4  A    between atoms: C_6  and  C_7 
REMARK    5  A    between atoms: C_7  and  C_8 
REMARK    6  A    between atoms: N_10  and  C_19 
REMARK    7  A    between atoms: C_14  and  N_15 
REMARK    8  A    between atoms: C_19  and  C_20 
REMARK    9  A    between atoms: C_23  and  O_28 
ROOT
HETATM    1  C   UNL     1       0.543  12.439  24.106  0.00  0.00     0.050 A 
HETATM    2  C   UNL     1       0.656  11.084  24.322  0.00  0.00     0.114 A 
HETATM    3  N   UNL     1      -0.584  10.607  24.684  0.00  0.00    -0.334 N 
HETATM    4  C   UNL     1      -1.469  11.656  24.749  0.00  0.00     0.148 A 
HETATM    5  C   UNL     1      -0.802  12.812  24.358  0.00  0.00     0.071 A 
HETATM    6  N   UNL     1      -2.755  11.590  25.129  0.00  0.00    -0.200 NA
HETATM    7  C   UNL     1      -3.389  12.769  25.102  0.00  0.00     0.202 A 
HETATM    8  N   UNL     1      -2.881  13.937  24.707  0.00  0.00    -0.205 NA
HETATM    9  C   UNL     1      -1.592  13.952  24.346  0.00  0.00     0.144 A 
HETATM   10 CL   UNL     1      -0.936  15.439  23.854  0.00  0.00    -0.061 Cl
ENDROOT
BRANCH   3  11
HETATM   11  C   UNL     1      -0.847   9.231  25.095  0.00  0.00     0.190 C 
BRANCH  11  12
HETATM   12  C   UNL     1      -0.028   8.790  26.287  0.00  0.00     0.061 A 
HETATM   13  C   UNL     1      -0.329   9.120  27.616  0.00  0.00    -0.002 A 
HETATM   14  C   UNL     1      -1.552   9.920  27.994  0.00  0.00     0.053 C 
HETATM   15  C   UNL     1       0.550   8.702  28.662  0.00  0.00     0.083 A 
HETATM   16  C   UNL     1       1.708   7.985  28.343  0.00  0.00    -0.011 A 
HETATM   17  C   UNL     1       1.905   7.718  26.986  0.00  0.00     0.126 A 
HETATM   18  C   UNL     1       2.797   7.473  29.238  0.00  0.00     0.052 C 
HETATM   19  N   UNL     1       1.088   8.087  25.976  0.00  0.00    -0.263 NA
BRANCH  15  20
HETATM   20  O   UNL     1       0.097   9.109  29.887  0.00  0.00    -0.355 OA
HETATM   21  C   UNL     1      -0.349   8.213  30.881  0.00  0.00     0.210 C 
ENDBRANCH  15  20
ENDBRANCH  11  12
ENDBRANCH   3  11
BRANCH   1  22
HETATM   22  C   UNL     1       1.624  13.282  23.721  0.00  0.00    -0.064 C 
BRANCH  22  23
HETATM   23  C   UNL     1       2.639  14.013  23.351  0.00  0.00    -0.098 C 
BRANCH  23  24
HETATM   24  C   UNL     1       3.821  14.866  22.920  0.00  0.00     0.131 C 
BRANCH  24  25
HETATM   25  C   UNL     1       3.516  15.562  21.571  0.00  0.00     0.061 C 
HETATM   26  C   UNL     1       2.652  16.816  21.761  0.00  0.00     0.046 C 
HETATM   27  C   UNL     1       2.847  14.604  20.576  0.00  0.00     0.046 C 
BRANCH  25  28
HETATM   28  O   UNL     1       4.766  15.976  21.002  0.00  0.00    -0.390 OA
HETATM   29  H   UNL     1       5.455  15.848  21.678  0.00  0.00     0.210 HD
ENDBRANCH  25  28
ENDBRANCH  24  25
ENDBRANCH  23  24
ENDBRANCH  22  23
ENDBRANCH   1  22
BRANCH   7  30
HETATM   30  N   UNL     1      -4.716  12.780  25.484  0.00  0.00    -0.271 NA
HETATM   31  H   UNL     1      -5.010  13.716  25.719  0.00  0.00     0.127 HD
HETATM   32  H   UNL     1      -4.883  12.053  26.166  0.00  0.00     0.127 HD
ENDBRANCH   7  30
TORSDOF 9
ENDMDL
MODEL 8
REMARK VINA RESULT:    -6.916      3.245      7.502
REMARK INTER + INTRA:         -11.195
REMARK INTER:                 -10.310
REMARK INTRA:                  -0.885
REMARK UNBOUND:                -1.044
REMARK  9 active torsions:
REMARK  status: ('A' for Active; 'I' for Inactive)
REMARK    1  A    between atoms: O_1  and  C_2 
REMARK    2  A    between atoms: C_2  and  C_5 
REMARK    3  A    between atoms: C_5  and  C_6 
REMARK    4  A    between atoms: C_6  and  C_7 
REMARK    5  A    between atoms: C_7  and  C_8 
REMARK    6  A    between atoms: N_10  and  C_19 
REMARK    7  A    between atoms: C_14  and  N_15 
REMARK    8  A    between atoms: C_19  and  C_20 
REMARK    9  A    between atoms: C_23  and  O_28 
ROOT
HETATM    1  C   UNL     1      -0.008  12.255  22.851  0.00  0.00     0.050 A 
HETATM    2  C   UNL     1       0.145  10.922  23.163  0.00  0.00     0.114 A 
HETATM    3  N   UNL     1      -0.968  10.522  23.869  0.00  0.00    -0.334 N 
HETATM    4  C   UNL     1      -1.798  11.602  24.051  0.00  0.00     0.148 A 
HETATM    5  C   UNL     1      -1.242  12.694  23.394  0.00  0.00     0.071 A 
HETATM    6  N   UNL     1      -2.947  11.613  24.746  0.00  0.00    -0.200 NA
HETATM    7  C   UNL     1      -3.557  12.806  24.764  0.00  0.00     0.202 A 
HETATM    8  N   UNL     1      -3.155  13.915  24.143  0.00  0.00    -0.205 NA
HETATM    9  C   UNL     1      -1.999  13.853  23.470  0.00  0.00     0.144 A 
HETATM   10 CL   UNL     1      -1.475  15.266  22.687  0.00  0.00    -0.061 Cl
ENDROOT
BRANCH   3  11
HETATM   11  C   UNL     1      -1.131   9.199  24.464  0.00  0.00     0.190 C 
BRANCH  11  12
HETATM   12  C   UNL     1      -0.412   9.039  25.785  0.00  0.00     0.061 A 
HETATM   13  C   UNL     1       0.852   8.449  25.927  0.00  0.00    -0.002 A 
HETATM   14  C   UNL     1       1.652   7.954  24.746  0.00  0.00     0.053 C 
HETATM   15  C   UNL     1       1.412   8.291  27.232  0.00  0.00     0.083 A 
HETATM   16  C   UNL     1       0.683   8.711  28.350  0.00  0.00    -0.011 A 
HETATM   17  C   UNL     1      -0.564   9.281  28.085  0.00  0.00     0.126 A 
HETATM   18  C   UNL     1       1.026   8.623  29.807  0.00  0.00     0.052 C 
HETATM   19  N   UNL     1      -1.116   9.456  26.865  0.00  0.00    -0.263 NA
BRANCH  15  20
HETATM   20  O   UNL     1       2.646   7.702  27.178  0.00  0.00    -0.355 OA
HETATM   21  C   UNL     1       3.823   8.336  27.626  0.00  0.00     0.210 C 
ENDBRANCH  15  20
ENDBRANCH  11  12
ENDBRANCH   3  11
BRANCH   1  22
HETATM   22  C   UNL     1       0.949  13.023  22.127  0.00  0.00    -0.064 C 
BRANCH  22  23
HETATM   23  C   UNL     1       1.843  13.742  21.508  0.00  0.00    -0.098 C 
BRANCH  23  24
HETATM   24  C   UNL     1       2.885  14.580  20.786  0.00  0.00     0.131 C 
BRANCH  24  25
HETATM   25  C   UNL     1       3.957  15.081  21.785  0.00  0.00     0.061 C 
HETATM   26  C   UNL     1       5.373  14.682  21.349  0.00  0.00     0.046 C 
HETATM   27  C   UNL     1       3.681  14.581  23.210  0.00  0.00     0.046 C 
BRANCH  25  28
HETATM   28  O   UNL     1       3.895  16.514  21.808  0.00  0.00    -0.390 OA
HETATM   29  H   UNL     1       2.966  16.767  21.954  0.00  0.00     0.210 HD
ENDBRANCH  25  28
ENDBRANCH  24  25
ENDBRANCH  23  24
ENDBRANCH  22  23
ENDBRANCH   1  22
BRANCH   7  30
HETATM   30  N   UNL     1      -4.744  12.896  25.463  0.00  0.00    -0.271 NA
HETATM   31  H   UNL     1      -4.742  13.707  26.065  0.00  0.00     0.127 HD
HETATM   32  H   UNL     1      -4.964  12.004  25.884  0.00  0.00     0.127 HD
ENDBRANCH   7  30
TORSDOF 9
ENDMDL
MODEL 9
REMARK VINA RESULT:    -6.897      3.126      7.842
REMARK INTER + INTRA:         -11.167
REMARK INTER:                 -10.192
REMARK INTRA:                  -0.975
REMARK UNBOUND:                -1.044
REMARK  9 active torsions:
REMARK  status: ('A' for Active; 'I' for Inactive)
REMARK    1  A    between atoms: O_1  and  C_2 
REMARK    2  A    between atoms: C_2  and  C_5 
REMARK    3  A    between atoms: C_5  and  C_6 
REMARK    4  A    between atoms: C_6  and  C_7 
REMARK    5  A    between atoms: C_7  and  C_8 
REMARK    6  A    between atoms: N_10  and  C_19 
REMARK    7  A    between atoms: C_14  and  N_15 
REMARK    8  A    between atoms: C_19  and  C_20 
REMARK    9  A    between atoms: C_23  and  O_28 
ROOT
HETATM    1  C   UNL     1       0.058  11.989  22.786  0.00  0.00     0.050 A 
HETATM    2  C   UNL     1       0.597  11.129  23.716  0.00  0.00     0.114 A 
HETATM    3  N   UNL     1      -0.441  10.475  24.342  0.00  0.00    -0.334 N 
HETATM    4  C   UNL     1      -1.633  10.952  23.852  0.00  0.00     0.148 A 
HETATM    5  C   UNL     1      -1.354  11.876  22.851  0.00  0.00     0.071 A 
HETATM    6  N   UNL     1      -2.861  10.598  24.265  0.00  0.00    -0.200 NA
HETATM    7  C   UNL     1      -3.852  11.222  23.615  0.00  0.00     0.202 A 
HETATM    8  N   UNL     1      -3.722  12.091  22.612  0.00  0.00    -0.205 NA
HETATM    9  C   UNL     1      -2.477  12.416  22.242  0.00  0.00     0.144 A 
HETATM   10 CL   UNL     1      -2.305  13.532  20.974  0.00  0.00    -0.061 Cl
ENDROOT
BRANCH   3  11
HETATM   11  C   UNL     1      -0.276   9.555  25.462  0.00  0.00     0.190 C 
BRANCH  11  12
HETATM   12  C   UNL     1       0.498   8.305  25.108  0.00  0.00     0.061 A 
HETATM   13  C   UNL     1       1.873   8.140  25.331  0.00  0.00    -0.002 A 
HETATM   14  C   UNL     1       2.716   9.196  26.004  0.00  0.00     0.053 C 
HETATM   15  C   UNL     1       2.517   6.940  24.898  0.00  0.00     0.083 A 
HETATM   16  C   UNL     1       1.770   5.955  24.244  0.00  0.00    -0.011 A 
HETATM   17  C   UNL     1       0.411   6.232  24.076  0.00  0.00     0.126 A 
HETATM   18  C   UNL     1       2.209   4.643  23.666  0.00  0.00     0.052 C 
HETATM   19  N   UNL     1      -0.230   7.349  24.483  0.00  0.00    -0.263 NA
BRANCH  15  20
HETATM   20  O   UNL     1       3.851   6.953  25.201  0.00  0.00    -0.355 OA
HETATM   21  C   UNL     1       4.441   6.069  26.128  0.00  0.00     0.210 C 
ENDBRANCH  15  20
ENDBRANCH  11  12
ENDBRANCH   3  11
BRANCH   1  22
HETATM   22  C   UNL     1       0.826  12.844  21.945  0.00  0.00    -0.064 C 
BRANCH  22  23
HETATM   23  C   UNL     1       1.569  13.595  21.180  0.00  0.00    -0.098 C 
BRANCH  23  24
HETATM   24  C   UNL     1       2.435  14.471  20.290  0.00  0.00     0.131 C 
BRANCH  24  25
HETATM   25  C   UNL     1       3.415  15.307  21.149  0.00  0.00     0.061 C 
HETATM   26  C   UNL     1       4.134  14.444  22.195  0.00  0.00     0.046 C 
HETATM   27  C   UNL     1       2.707  16.486  21.831  0.00  0.00     0.046 C 
BRANCH  25  28
HETATM   28  O   UNL     1       4.411  15.848  20.271  0.00  0.00    -0.390 OA
HETATM   29  H   UNL     1       5.271  15.778  20.721  0.00  0.00     0.210 HD
ENDBRANCH  25  28
ENDBRANCH  24  25
ENDBRANCH  23  24
ENDBRANCH  22  23
ENDBRANCH   1  22
BRANCH   7  30
HETATM   30  N   UNL     1      -5.144  10.913  23.988  0.00  0.00    -0.271 NA
HETATM   31  H   UNL     1      -5.333  11.241  24.924  0.00  0.00     0.127 HD
HETATM   32  H   UNL     1      -5.336   9.941  23.787  0.00  0.00     0.127 HD
ENDBRANCH   7  30
TORSDOF 9
ENDMDL
