MODEL 1
REMARK VINA RESULT:    -8.188      0.000      0.000
REMARK INTER + INTRA:         -11.895
REMARK INTER:                 -11.239
REMARK INTRA:                  -0.656
REMARK UNBOUND:                -1.552
REMARK  5 active torsions:
REMARK  status: ('A' for Active; 'I' for Inactive)
REMARK    1  A    between atoms: C_7  and  C_8 
REMARK    2  A    between atoms: C_8  and  C_9 
REMARK    3  A    between atoms: C_16  and  C_20 
REMARK    4  A    between atoms: C_17  and  O_19 
REMARK       I    between atoms: C_20  and  N_22 
REMARK    5  A    between atoms: N_22  and  C_24 
ROOT
HETATM    1  C   UNL     1       4.134   7.925  19.234  0.00  0.00     0.071 C 
HETATM    2  N   UNL     1       5.291   7.886  18.550  0.00  0.00    -0.178 NA
HETATM    3  N   UNL     1       6.151   7.307  19.397  0.00  0.00    -0.277 N 
HETATM    4  H   UNL     1       7.105   7.163  19.088  0.00  0.00     0.189 HD
HETATM    5  C   UNL     1       4.277   7.360  20.538  0.00  0.00     0.020 C 
HETATM    6  C   UNL     1       5.631   7.055  20.636  0.00  0.00     0.065 C 
HETATM    7  C   UNL     1       3.448   7.132  21.657  0.00  0.00     0.035 C 
HETATM    8  C   UNL     1       4.022   6.659  22.854  0.00  0.00     0.066 C 
HETATM    9  C   UNL     1       5.416   6.501  22.938  0.00  0.00     0.083 C 
HETATM   10  C   UNL     1       6.241   6.632  21.818  0.00  0.00     0.069 C 
ENDROOT
BRANCH   8  11
HETATM   11  C   UNL     1       3.189   6.376  24.047  0.00  0.00     0.260 C 
HETATM   12  O   UNL     1       2.926   5.184  24.244  0.00  0.00    -0.267 OA
HETATM   13  N   UNL     1       2.756   7.409  24.908  0.00  0.00    -0.318 N 
HETATM   14  C   UNL     1       2.196   7.017  26.200  0.00  0.00     0.159 C 
BRANCH  13  15
HETATM   15  C   UNL     1       2.695   8.803  24.575  0.00  0.00     0.040 A 
HETATM   16  C   UNL     1       3.741   9.444  23.901  0.00  0.00     0.072 A 
HETATM   17  C   UNL     1       3.683  10.812  23.659  0.00  0.00     0.118 A 
HETATM   18  F   UNL     1       4.710  11.413  23.038  0.00  0.00    -0.206 F 
HETATM   19  C   UNL     1       2.583  11.562  24.041  0.00  0.00     0.042 A 
HETATM   20  C   UNL     1       1.507  10.935  24.653  0.00  0.00     0.005 A 
HETATM   21  C   UNL     1       1.556   9.560  24.906  0.00  0.00     0.030 A 
ENDBRANCH  13  15
ENDBRANCH   8  11
BRANCH   9  22
HETATM   22  O   UNL     1       6.062   6.255  24.121  0.00  0.00    -0.360 OA
HETATM   23  H   UNL     1       6.022   7.085  24.646  0.00  0.00     0.217 HD
ENDBRANCH   9  22
BRANCH   1  24
HETATM   24  C   UNL     1       2.956   8.648  18.658  0.00  0.00     0.100 C 
BRANCH  24  25
HETATM   25  C   UNL     1       2.076   7.637  17.966  0.00  0.00    -0.052 A 
HETATM   26  C   UNL     1       1.354   6.703  18.724  0.00  0.00     0.014 A 
HETATM   27  C   UNL     1       0.564   5.726  18.102  0.00  0.00    -0.061 A 
HETATM   28  C   UNL     1      -0.099   4.655  18.914  0.00  0.00     0.048 C 
HETATM   29  C   UNL     1       0.467   5.712  16.707  0.00  0.00     0.007 A 
HETATM   30  C   UNL     1       1.138   6.666  15.944  0.00  0.00     0.001 A 
HETATM   31  C   UNL     1       1.936   7.623  16.569  0.00  0.00     0.007 A 
ENDBRANCH  24  25
ENDBRANCH   1  24
TORSDOF 5
ENDMDL
MODEL 2
REMARK VINA RESULT:    -7.947      3.863      5.893
REMARK INTER + INTRA:         -11.590
REMARK INTER:                  -9.563
REMARK INTRA:                  -2.027
REMARK UNBOUND:                -1.552
REMARK  5 active torsions:
REMARK  status: ('A' for Active; 'I' for Inactive)
REMARK    1  A    between atoms: C_7  and  C_8 
REMARK    2  A    between atoms: C_8  and  C_9 
REMARK    3  A    between atoms: C_16  and  C_20 
REMARK    4  A    between atoms: C_17  and  O_19 
REMARK       I    between atoms: C_20  and  N_22 
REMARK    5  A    between atoms: N_22  and  C_24 
ROOT
HETATM    1  C   UNL     1       1.396   5.149  16.336  0.00  0.00     0.071 C 
HETATM    2  N   UNL     1       0.254   5.734  15.934  0.00  0.00    -0.178 NA
HETATM    3  N   UNL     1       0.358   6.993  16.379  0.00  0.00    -0.277 N 
HETATM    4  H   UNL     1      -0.400   7.636  16.182  0.00  0.00     0.189 HD
HETATM    5  C   UNL     1       2.230   6.064  17.050  0.00  0.00     0.020 C 
HETATM    6  C   UNL     1       1.473   7.228  17.135  0.00  0.00     0.065 C 
HETATM    7  C   UNL     1       3.491   6.027  17.683  0.00  0.00     0.035 C 
HETATM    8  C   UNL     1       3.919   7.144  18.427  0.00  0.00     0.066 C 
HETATM    9  C   UNL     1       3.054   8.239  18.593  0.00  0.00     0.083 C 
HETATM   10  C   UNL     1       1.844   8.333  17.902  0.00  0.00     0.069 C 
ENDROOT
BRANCH   8  11
HETATM   11  C   UNL     1       5.248   7.166  19.085  0.00  0.00     0.260 C 
HETATM   12  O   UNL     1       6.131   7.791  18.485  0.00  0.00    -0.267 OA
HETATM   13  N   UNL     1       5.467   6.533  20.329  0.00  0.00    -0.318 N 
HETATM   14  C   UNL     1       6.708   6.848  21.034  0.00  0.00     0.159 C 
BRANCH  13  15
HETATM   15  C   UNL     1       4.643   5.508  20.900  0.00  0.00     0.040 A 
HETATM   16  C   UNL     1       4.905   4.150  20.685  0.00  0.00     0.072 A 
HETATM   17  C   UNL     1       4.044   3.182  21.192  0.00  0.00     0.118 A 
HETATM   18  F   UNL     1       4.297   1.886  20.949  0.00  0.00    -0.206 F 
HETATM   19  C   UNL     1       2.936   3.531  21.946  0.00  0.00     0.042 A 
HETATM   20  C   UNL     1       2.693   4.869  22.226  0.00  0.00     0.005 A 
HETATM   21  C   UNL     1       3.550   5.851  21.717  0.00  0.00     0.030 A 
ENDBRANCH  13  15
ENDBRANCH   8  11
BRANCH   9  22
HETATM   22  O   UNL     1       3.313   9.258  19.473  0.00  0.00    -0.360 OA
HETATM   23  H   UNL     1       3.460   8.845  20.353  0.00  0.00     0.217 HD
ENDBRANCH   9  22
BRANCH   1  24
HETATM   24  C   UNL     1       1.580   3.675  16.148  0.00  0.00     0.100 C 
BRANCH  24  25
HETATM   25  C   UNL     1       1.000   2.972  17.349  0.00  0.00    -0.052 A 
HETATM   26  C   UNL     1      -0.388   2.967  17.555  0.00  0.00     0.014 A 
HETATM   27  C   UNL     1      -0.947   2.357  18.686  0.00  0.00    -0.061 A 
HETATM   28  C   UNL     1      -2.415   2.470  18.962  0.00  0.00     0.048 C 
HETATM   29  C   UNL     1      -0.107   1.711  19.599  0.00  0.00     0.007 A 
HETATM   30  C   UNL     1       1.268   1.663  19.380  0.00  0.00     0.001 A 
HETATM   31  C   UNL     1       1.819   2.288  18.262  0.00  0.00     0.007 A 
ENDBRANCH  24  25
ENDBRANCH   1  24
TORSDOF 5
ENDMDL
MODEL 3
REMARK VINA RESULT:    -7.896      4.058      7.105
REMARK INTER + INTRA:         -11.525
REMARK INTER:                 -11.474
REMARK INTRA:                  -0.051
REMARK UNBOUND:                -1.552
REMARK  5 active torsions:
REMARK  status: ('A' for Active; 'I' for Inactive)
REMARK    1  A    between atoms: C_7  and  C_8 
REMARK    2  A    between atoms: C_8  and  C_9 
REMARK    3  A    between atoms: C_16  and  C_20 
REMARK    4  A    between atoms: C_17  and  O_19 
REMARK       I    between atoms: C_20  and  N_22 
REMARK    5  A    between atoms: N_22  and  C_24 
ROOT
HETATM    1  C   UNL     1      -1.530  10.371  26.507  0.00  0.00     0.071 C 
HETATM    2  N   UNL     1      -1.779  11.016  27.660  0.00  0.00    -0.178 NA
HETATM    3  N   UNL     1      -0.916  10.474  28.530  0.00  0.00    -0.277 N 
HETATM    4  H   UNL     1      -0.916  10.817  29.483  0.00  0.00     0.189 HD
HETATM    5  C   UNL     1      -0.490   9.404  26.661  0.00  0.00     0.020 C 
HETATM    6  C   UNL     1      -0.183   9.439  28.018  0.00  0.00     0.065 C 
HETATM    7  C   UNL     1       0.175   8.468  25.840  0.00  0.00     0.035 C 
HETATM    8  C   UNL     1       1.083   7.563  26.425  0.00  0.00     0.066 C 
HETATM    9  C   UNL     1       1.250   7.553  27.820  0.00  0.00     0.083 C 
HETATM   10  C   UNL     1       0.673   8.528  28.638  0.00  0.00     0.069 C 
ENDROOT
BRANCH   8  11
HETATM   11  C   UNL     1       1.829   6.582  25.600  0.00  0.00     0.260 C 
HETATM   12  O   UNL     1       1.779   5.409  25.990  0.00  0.00    -0.267 OA
HETATM   13  N   UNL     1       2.521   6.973  24.432  0.00  0.00    -0.318 N 
HETATM   14  C   UNL     1       2.976   5.913  23.534  0.00  0.00     0.159 C 
BRANCH  13  15
HETATM   15  C   UNL     1       2.935   8.309  24.115  0.00  0.00     0.040 A 
HETATM   16  C   UNL     1       3.652   8.598  22.948  0.00  0.00     0.072 A 
HETATM   17  C   UNL     1       4.102   9.891  22.705  0.00  0.00     0.118 A 
HETATM   18  F   UNL     1       4.814  10.141  21.595  0.00  0.00    -0.206 F 
HETATM   19  C   UNL     1       3.824  10.924  23.585  0.00  0.00     0.042 A 
HETATM   20  C   UNL     1       3.060  10.673  24.716  0.00  0.00     0.005 A 
HETATM   21  C   UNL     1       2.606   9.375  24.972  0.00  0.00     0.030 A 
ENDBRANCH  13  15
ENDBRANCH   8  11
BRANCH   9  22
HETATM   22  O   UNL     1       1.944   6.569  28.474  0.00  0.00    -0.360 OA
HETATM   23  H   UNL     1       2.664   7.012  28.975  0.00  0.00     0.217 HD
ENDBRANCH   9  22
BRANCH   1  24
HETATM   24  C   UNL     1      -2.413  10.606  25.321  0.00  0.00     0.100 C 
BRANCH  24  25
HETATM   25  C   UNL     1      -1.705  11.558  24.389  0.00  0.00    -0.052 A 
HETATM   26  C   UNL     1      -0.585  12.274  24.839  0.00  0.00     0.014 A 
HETATM   27  C   UNL     1       0.063  13.196  24.006  0.00  0.00    -0.061 A 
HETATM   28  C   UNL     1       1.175  14.049  24.537  0.00  0.00     0.048 C 
HETATM   29  C   UNL     1      -0.393  13.371  22.695  0.00  0.00     0.007 A 
HETATM   30  C   UNL     1      -1.472  12.629  22.220  0.00  0.00     0.001 A 
HETATM   31  C   UNL     1      -2.123  11.727  23.060  0.00  0.00     0.007 A 
ENDBRANCH  24  25
ENDBRANCH   1  24
TORSDOF 5
ENDMDL
MODEL 4
REMARK VINA RESULT:    -7.886      3.084      7.018
REMARK INTER + INTRA:         -11.513
REMARK INTER:                 -10.189
REMARK INTRA:                  -1.324
REMARK UNBOUND:                -1.552
REMARK  5 active torsions:
REMARK  status: ('A' for Active; 'I' for Inactive)
REMARK    1  A    between atoms: C_7  and  C_8 
REMARK    2  A    between atoms: C_8  and  C_9 
REMARK    3  A    between atoms: C_16  and  C_20 
REMARK    4  A    between atoms: C_17  and  O_19 
REMARK       I    between atoms: C_20  and  N_22 
REMARK    5  A    between atoms: N_22  and  C_24 
ROOT
HETATM    1  C   UNL     1       4.403   6.948  23.226  0.00  0.00     0.071 C 
HETATM    2  N   UNL     1       5.583   6.467  23.658  0.00  0.00    -0.178 NA
HETATM    3  N   UNL     1       6.310   6.336  22.540  0.00  0.00    -0.277 N 
HETATM    4  H   UNL     1       7.259   5.990  22.623  0.00  0.00     0.189 HD
HETATM    5  C   UNL     1       4.395   7.118  21.808  0.00  0.00     0.020 C 
HETATM    6  C   UNL     1       5.625   6.619  21.392  0.00  0.00     0.065 C 
HETATM    7  C   UNL     1       3.480   7.568  20.831  0.00  0.00     0.035 C 
HETATM    8  C   UNL     1       3.815   7.446  19.468  0.00  0.00     0.066 C 
HETATM    9  C   UNL     1       5.012   6.808  19.103  0.00  0.00     0.083 C 
HETATM   10  C   UNL     1       5.969   6.440  20.051  0.00  0.00     0.069 C 
ENDROOT
BRANCH   8  11
HETATM   11  C   UNL     1       2.901   7.932  18.406  0.00  0.00     0.260 C 
HETATM   12  O   UNL     1       2.930   9.150  18.192  0.00  0.00    -0.267 OA
HETATM   13  N   UNL     1       2.079   7.045  17.676  0.00  0.00    -0.318 N 
HETATM   14  C   UNL     1       1.437   7.563  16.468  0.00  0.00     0.159 C 
BRANCH  13  15
HETATM   15  C   UNL     1       1.711   5.720  18.085  0.00  0.00     0.040 A 
HETATM   16  C   UNL     1       2.363   4.589  17.581  0.00  0.00     0.072 A 
HETATM   17  C   UNL     1       1.934   3.316  17.940  0.00  0.00     0.118 A 
HETATM   18  F   UNL     1       2.553   2.243  17.422  0.00  0.00    -0.206 F 
HETATM   19  C   UNL     1       0.884   3.136  18.825  0.00  0.00     0.042 A 
HETATM   20  C   UNL     1       0.265   4.244  19.386  0.00  0.00     0.005 A 
HETATM   21  C   UNL     1       0.685   5.530  19.028  0.00  0.00     0.030 A 
ENDBRANCH  13  15
ENDBRANCH   8  11
BRANCH   9  22
HETATM   22  O   UNL     1       5.300   6.463  17.808  0.00  0.00    -0.360 OA
HETATM   23  H   UNL     1       5.935   5.713  17.846  0.00  0.00     0.217 HD
ENDBRANCH   9  22
BRANCH   1  24
HETATM   24  C   UNL     1       3.263   7.086  24.187  0.00  0.00     0.100 C 
BRANCH  24  25
HETATM   25  C   UNL     1       2.917   8.551  24.296  0.00  0.00    -0.052 A 
HETATM   26  C   UNL     1       1.686   8.940  24.845  0.00  0.00     0.014 A 
HETATM   27  C   UNL     1       1.323  10.292  24.917  0.00  0.00    -0.061 A 
HETATM   28  C   UNL     1      -0.044  10.688  25.384  0.00  0.00     0.048 C 
HETATM   29  C   UNL     1       2.224  11.265  24.471  0.00  0.00     0.007 A 
HETATM   30  C   UNL     1       3.471  10.895  23.972  0.00  0.00     0.001 A 
HETATM   31  C   UNL     1       3.817   9.547  23.886  0.00  0.00     0.007 A 
ENDBRANCH  24  25
ENDBRANCH   1  24
TORSDOF 5
ENDMDL
MODEL 5
REMARK VINA RESULT:    -7.692      5.148      6.631
REMARK INTER + INTRA:         -11.268
REMARK INTER:                  -9.784
REMARK INTRA:                  -1.484
REMARK UNBOUND:                -1.552
REMARK  5 active torsions:
REMARK  status: ('A' for Active; 'I' for Inactive)
REMARK    1  A    between atoms: C_7  and  C_8 
REMARK    2  A    between atoms: C_8  and  C_9 
REMARK    3  A    between atoms: C_16  and  C_20 
REMARK    4  A    between atoms: C_17  and  O_19 
REMARK       I    between atoms: C_20  and  N_22 
REMARK    5  A    between atoms: N_22  and  C_24 
ROOT
HETATM    1  C   UNL     1       1.840  11.488  24.511  0.00  0.00     0.071 C 
HETATM    2  N   UNL     1       3.072  11.749  24.040  0.00  0.00    -0.178 NA
HETATM    3  N   UNL     1       3.662  10.548  23.987  0.00  0.00    -0.277 N 
HETATM    4  H   UNL     1       4.616  10.496  23.647  0.00  0.00     0.189 HD
HETATM    5  C   UNL     1       1.660  10.092  24.760  0.00  0.00     0.020 C 
HETATM    6  C   UNL     1       2.904   9.530  24.493  0.00  0.00     0.065 C 
HETATM    7  C   UNL     1       0.626   9.258  25.235  0.00  0.00     0.035 C 
HETATM    8  C   UNL     1       0.898   7.897  25.479  0.00  0.00     0.066 C 
HETATM    9  C   UNL     1       2.208   7.414  25.324  0.00  0.00     0.083 C 
HETATM   10  C   UNL     1       3.221   8.198  24.768  0.00  0.00     0.069 C 
ENDROOT
BRANCH   8  11
HETATM   11  C   UNL     1      -0.162   6.973  25.950  0.00  0.00     0.260 C 
HETATM   12  O   UNL     1      -0.949   6.576  25.082  0.00  0.00    -0.267 OA
HETATM   13  N   UNL     1      -0.237   6.561  27.300  0.00  0.00    -0.318 N 
HETATM   14  C   UNL     1      -1.121   5.438  27.611  0.00  0.00     0.159 C 
BRANCH  13  15
HETATM   15  C   UNL     1       0.374   7.229  28.412  0.00  0.00     0.040 A 
HETATM   16  C   UNL     1       1.501   6.705  29.054  0.00  0.00     0.072 A 
HETATM   17  C   UNL     1       2.026   7.337  30.176  0.00  0.00     0.118 A 
HETATM   18  F   UNL     1       3.090   6.801  30.795  0.00  0.00    -0.206 F 
HETATM   19  C   UNL     1       1.474   8.511  30.660  0.00  0.00     0.042 A 
HETATM   20  C   UNL     1       0.395   9.083  30.001  0.00  0.00     0.005 A 
HETATM   21  C   UNL     1      -0.144   8.452  28.874  0.00  0.00     0.030 A 
ENDBRANCH  13  15
ENDBRANCH   8  11
BRANCH   9  22
HETATM   22  O   UNL     1       2.591   6.167  25.745  0.00  0.00    -0.360 OA
HETATM   23  H   UNL     1       2.064   5.963  26.550  0.00  0.00     0.217 HD
ENDBRANCH   9  22
BRANCH   1  24
HETATM   24  C   UNL     1       0.920  12.620  24.850  0.00  0.00     0.100 C 
BRANCH  24  25
HETATM   25  C   UNL     1      -0.344  12.455  24.045  0.00  0.00    -0.052 A 
HETATM   26  C   UNL     1      -0.368  12.829  22.693  0.00  0.00     0.014 A 
HETATM   27  C   UNL     1      -1.542  12.725  21.936  0.00  0.00    -0.061 A 
HETATM   28  C   UNL     1      -1.590  13.248  20.533  0.00  0.00     0.048 C 
HETATM   29  C   UNL     1      -2.695  12.202  22.532  0.00  0.00     0.007 A 
HETATM   30  C   UNL     1      -2.672  11.779  23.859  0.00  0.00     0.001 A 
HETATM   31  C   UNL     1      -1.504  11.902  24.611  0.00  0.00     0.007 A 
ENDBRANCH  24  25
ENDBRANCH   1  24
TORSDOF 5
ENDMDL
MODEL 6
REMARK VINA RESULT:    -7.688      2.887      6.587
REMARK INTER + INTRA:         -11.262
REMARK INTER:                 -10.027
REMARK INTRA:                  -1.235
REMARK UNBOUND:                -1.552
REMARK  5 active torsions:
REMARK  status: ('A' for Active; 'I' for Inactive)
REMARK    1  A    between atoms: C_7  and  C_8 
REMARK    2  A    between atoms: C_8  and  C_9 
REMARK    3  A    between atoms: C_16  and  C_20 
REMARK    4  A    between atoms: C_17  and  O_19 
REMARK       I    between atoms: C_20  and  N_22 
REMARK    5  A    between atoms: N_22  and  C_24 
ROOT
HETATM    1  C   UNL     1       3.694   8.530  23.315  0.00  0.00     0.071 C 
HETATM    2  N   UNL     1       3.898   9.854  23.198  0.00  0.00    -0.178 NA
HETATM    3  N   UNL     1       4.344  10.006  21.944  0.00  0.00    -0.277 N 
HETATM    4  H   UNL     1       4.562  10.942  21.623  0.00  0.00     0.189 HD
HETATM    5  C   UNL     1       4.022   7.841  22.107  0.00  0.00     0.020 C 
HETATM    6  C   UNL     1       4.530   8.831  21.272  0.00  0.00     0.065 C 
HETATM    7  C   UNL     1       4.012   6.506  21.649  0.00  0.00     0.035 C 
HETATM    8  C   UNL     1       4.566   6.207  20.388  0.00  0.00     0.066 C 
HETATM    9  C   UNL     1       5.190   7.225  19.648  0.00  0.00     0.083 C 
HETATM   10  C   UNL     1       5.130   8.564  20.039  0.00  0.00     0.069 C 
ENDROOT
BRANCH   8  11
HETATM   11  C   UNL     1       4.552   4.826  19.850  0.00  0.00     0.260 C 
HETATM   12  O   UNL     1       5.574   4.161  20.058  0.00  0.00    -0.267 OA
HETATM   13  N   UNL     1       3.425   4.309  19.172  0.00  0.00    -0.318 N 
HETATM   14  C   UNL     1       3.386   2.866  18.937  0.00  0.00     0.159 C 
BRANCH  13  15
HETATM   15  C   UNL     1       2.379   5.087  18.577  0.00  0.00     0.040 A 
HETATM   16  C   UNL     1       2.618   5.920  17.478  0.00  0.00     0.072 A 
HETATM   17  C   UNL     1       1.600   6.719  16.969  0.00  0.00     0.118 A 
HETATM   18  F   UNL     1       1.858   7.533  15.934  0.00  0.00    -0.206 F 
HETATM   19  C   UNL     1       0.324   6.685  17.509  0.00  0.00     0.042 A 
HETATM   20  C   UNL     1       0.049   5.819  18.558  0.00  0.00     0.005 A 
HETATM   21  C   UNL     1       1.068   5.014  19.080  0.00  0.00     0.030 A 
ENDBRANCH  13  15
ENDBRANCH   8  11
BRANCH   9  22
HETATM   22  O   UNL     1       5.934   6.971  18.525  0.00  0.00    -0.360 OA
HETATM   23  H   UNL     1       5.413   6.348  17.971  0.00  0.00     0.217 HD
ENDBRANCH   9  22
BRANCH   1  24
HETATM   24  C   UNL     1       3.328   7.951  24.646  0.00  0.00     0.100 C 
BRANCH  24  25
HETATM   25  C   UNL     1       1.860   8.204  24.881  0.00  0.00    -0.052 A 
HETATM   26  C   UNL     1       1.389   9.519  25.020  0.00  0.00     0.014 A 
HETATM   27  C   UNL     1       0.037   9.777  25.282  0.00  0.00    -0.061 A 
HETATM   28  C   UNL     1      -0.430  11.174  25.556  0.00  0.00     0.048 C 
HETATM   29  C   UNL     1      -0.859   8.706  25.365  0.00  0.00     0.007 A 
HETATM   30  C   UNL     1      -0.415   7.399  25.178  0.00  0.00     0.001 A 
HETATM   31  C   UNL     1       0.935   7.149  24.936  0.00  0.00     0.007 A 
ENDBRANCH  24  25
ENDBRANCH   1  24
TORSDOF 5
ENDMDL
MODEL 7
REMARK VINA RESULT:    -7.498      3.509      5.386
REMARK INTER + INTRA:         -11.024
REMARK INTER:                  -9.471
REMARK INTRA:                  -1.552
REMARK UNBOUND:                -1.552
REMARK  5 active torsions:
REMARK  status: ('A' for Active; 'I' for Inactive)
REMARK    1  A    between atoms: C_7  and  C_8 
REMARK    2  A    between atoms: C_8  and  C_9 
REMARK    3  A    between atoms: C_16  and  C_20 
REMARK    4  A    between atoms: C_17  and  O_19 
REMARK       I    between atoms: C_20  and  N_22 
REMARK    5  A    between atoms: N_22  and  C_24 
ROOT
HETATM    1  C   UNL     1       4.696   4.832  23.298  0.00  0.00     0.071 C 
HETATM    2  N   UNL     1       5.636   4.176  24.003  0.00  0.00    -0.178 NA
HETATM    3  N   UNL     1       5.543   4.698  25.233  0.00  0.00    -0.277 N 
HETATM    4  H   UNL     1       6.163   4.343  25.952  0.00  0.00     0.189 HD
HETATM    5  C   UNL     1       4.005   5.785  24.107  0.00  0.00     0.020 C 
HETATM    6  C   UNL     1       4.653   5.729  25.337  0.00  0.00     0.065 C 
HETATM    7  C   UNL     1       2.965   6.723  23.930  0.00  0.00     0.035 C 
HETATM    8  C   UNL     1       2.654   7.610  24.980  0.00  0.00     0.066 C 
HETATM    9  C   UNL     1       3.433   7.601  26.149  0.00  0.00     0.083 C 
HETATM   10  C   UNL     1       4.404   6.624  26.380  0.00  0.00     0.069 C 
ENDROOT
BRANCH   8  11
HETATM   11  C   UNL     1       1.551   8.593  24.853  0.00  0.00     0.260 C 
HETATM   12  O   UNL     1       1.828   9.631  24.241  0.00  0.00    -0.267 OA
HETATM   13  N   UNL     1       0.265   8.332  25.379  0.00  0.00    -0.318 N 
HETATM   14  C   UNL     1      -0.824   9.214  24.959  0.00  0.00     0.159 C 
BRANCH  13  15
HETATM   15  C   UNL     1      -0.043   7.362  26.389  0.00  0.00     0.040 A 
HETATM   16  C   UNL     1       0.162   7.627  27.748  0.00  0.00     0.072 A 
HETATM   17  C   UNL     1      -0.076   6.640  28.697  0.00  0.00     0.118 A 
HETATM   18  F   UNL     1       0.155   6.904  29.993  0.00  0.00    -0.206 F 
HETATM   19  C   UNL     1      -0.554   5.392  28.330  0.00  0.00     0.042 A 
HETATM   20  C   UNL     1      -0.825   5.129  26.995  0.00  0.00     0.005 A 
HETATM   21  C   UNL     1      -0.584   6.114  26.031  0.00  0.00     0.030 A 
ENDBRANCH  13  15
ENDBRANCH   8  11
BRANCH   9  22
HETATM   22  O   UNL     1       3.329   8.570  27.113  0.00  0.00    -0.360 OA
HETATM   23  H   UNL     1       3.009   8.126  27.930  0.00  0.00     0.217 HD
ENDBRANCH   9  22
BRANCH   1  24
HETATM   24  C   UNL     1       4.598   4.621  21.819  0.00  0.00     0.100 C 
BRANCH  24  25
HETATM   25  C   UNL     1       4.969   5.914  21.135  0.00  0.00    -0.052 A 
HETATM   26  C   UNL     1       3.988   6.654  20.458  0.00  0.00     0.014 A 
HETATM   27  C   UNL     1       4.317   7.835  19.779  0.00  0.00    -0.061 A 
HETATM   28  C   UNL     1       3.290   8.548  18.953  0.00  0.00     0.048 C 
HETATM   29  C   UNL     1       5.636   8.299  19.814  0.00  0.00     0.007 A 
HETATM   30  C   UNL     1       6.610   7.600  20.526  0.00  0.00     0.001 A 
HETATM   31  C   UNL     1       6.278   6.417  21.184  0.00  0.00     0.007 A 
ENDBRANCH  24  25
ENDBRANCH   1  24
TORSDOF 5
ENDMDL
MODEL 8
REMARK VINA RESULT:    -7.491      2.869      6.322
REMARK INTER + INTRA:         -11.014
REMARK INTER:                  -9.842
REMARK INTRA:                  -1.172
REMARK UNBOUND:                -1.552
REMARK  5 active torsions:
REMARK  status: ('A' for Active; 'I' for Inactive)
REMARK    1  A    between atoms: C_7  and  C_8 
REMARK    2  A    between atoms: C_8  and  C_9 
REMARK    3  A    between atoms: C_16  and  C_20 
REMARK    4  A    between atoms: C_17  and  O_19 
REMARK       I    between atoms: C_20  and  N_22 
REMARK    5  A    between atoms: N_22  and  C_24 
ROOT
HETATM    1  C   UNL     1       1.494   8.277  25.705  0.00  0.00     0.071 C 
HETATM    2  N   UNL     1       2.123   8.834  26.755  0.00  0.00    -0.178 NA
HETATM    3  N   UNL     1       3.324   8.240  26.769  0.00  0.00    -0.277 N 
HETATM    4  H   UNL     1       3.986   8.514  27.485  0.00  0.00     0.189 HD
HETATM    5  C   UNL     1       2.321   7.313  25.051  0.00  0.00     0.020 C 
HETATM    6  C   UNL     1       3.470   7.253  25.835  0.00  0.00     0.065 C 
HETATM    7  C   UNL     1       2.211   6.446  23.943  0.00  0.00     0.035 C 
HETATM    8  C   UNL     1       3.236   5.511  23.696  0.00  0.00     0.066 C 
HETATM    9  C   UNL     1       4.306   5.402  24.600  0.00  0.00     0.083 C 
HETATM   10  C   UNL     1       4.480   6.309  25.648  0.00  0.00     0.069 C 
ENDROOT
BRANCH   8  11
HETATM   11  C   UNL     1       3.181   4.600  22.528  0.00  0.00     0.260 C 
HETATM   12  O   UNL     1       2.763   3.458  22.759  0.00  0.00    -0.267 OA
HETATM   13  N   UNL     1       3.557   5.031  21.236  0.00  0.00    -0.318 N 
HETATM   14  C   UNL     1       3.198   4.171  20.109  0.00  0.00     0.159 C 
BRANCH  13  15
HETATM   15  C   UNL     1       4.375   6.171  20.942  0.00  0.00     0.040 A 
HETATM   16  C   UNL     1       5.772   6.102  20.979  0.00  0.00     0.072 A 
HETATM   17  C   UNL     1       6.536   7.244  20.761  0.00  0.00     0.118 A 
HETATM   18  F   UNL     1       7.874   7.162  20.831  0.00  0.00    -0.206 F 
HETATM   19  C   UNL     1       5.940   8.460  20.469  0.00  0.00     0.042 A 
HETATM   20  C   UNL     1       4.559   8.538  20.365  0.00  0.00     0.005 A 
HETATM   21  C   UNL     1       3.781   7.396  20.586  0.00  0.00     0.030 A 
ENDBRANCH  13  15
ENDBRANCH   8  11
BRANCH   9  22
HETATM   22  O   UNL     1       5.219   4.381  24.545  0.00  0.00    -0.360 OA
HETATM   23  H   UNL     1       4.727   3.548  24.721  0.00  0.00     0.217 HD
ENDBRANCH   9  22
BRANCH   1  24
HETATM   24  C   UNL     1       0.051   8.587  25.455  0.00  0.00     0.100 C 
BRANCH  24  25
HETATM   25  C   UNL     1      -0.037   9.977  24.876  0.00  0.00    -0.052 A 
HETATM   26  C   UNL     1      -1.266  10.462  24.402  0.00  0.00     0.014 A 
HETATM   27  C   UNL     1      -1.364  11.733  23.820  0.00  0.00    -0.061 A 
HETATM   28  C   UNL     1      -2.650  12.188  23.202  0.00  0.00     0.048 C 
HETATM   29  C   UNL     1      -0.224  12.541  23.750  0.00  0.00     0.007 A 
HETATM   30  C   UNL     1       0.991  12.093  24.262  0.00  0.00     0.001 A 
HETATM   31  C   UNL     1       1.084  10.820  24.824  0.00  0.00     0.007 A 
ENDBRANCH  24  25
ENDBRANCH   1  24
TORSDOF 5
ENDMDL
