REMARK  5 active torsions:
REMARK  status: ('A' for Active; 'I' for Inactive)
REMARK    1  A    between atoms: C_7  and  C_8 
REMARK    2  A    between atoms: C_8  and  C_9 
REMARK    3  A    between atoms: C_16  and  C_20 
REMARK    4  A    between atoms: C_17  and  O_19 
REMARK       I    between atoms: C_20  and  N_22 
REMARK    5  A    between atoms: N_22  and  C_24 
ROOT
HETATM    1  C   UNL     1      -3.394   1.208  -0.244  0.00  0.00     0.071 C 
HETATM    2  N   UNL     1      -4.706   1.363   0.008  0.00  0.00    -0.178 NA
HETATM    3  N   UNL     1      -4.888   2.690  -0.016  0.00  0.00    -0.277 N 
HETATM    4  H   UNL     1      -5.822   3.049   0.144  0.00  0.00     0.189 HD
HETATM    5  C   UNL     1      -2.744   2.467  -0.427  0.00  0.00     0.020 C 
HETATM    6  C   UNL     1      -3.737   3.409  -0.177  0.00  0.00     0.065 C 
HETATM    7  C   UNL     1      -1.436   2.918  -0.706  0.00  0.00     0.035 C 
HETATM    8  C   UNL     1      -1.162   4.300  -0.667  0.00  0.00     0.066 C 
HETATM    9  C   UNL     1      -2.171   5.195  -0.273  0.00  0.00     0.083 C 
HETATM   10  C   UNL     1      -3.491   4.780  -0.083  0.00  0.00     0.069 C 
ENDROOT
BRANCH   8  11
HETATM   11  C   UNL     1       0.188   4.825  -0.982  0.00  0.00     0.260 C 
HETATM   12  O   UNL     1       0.612   5.702  -0.219  0.00  0.00    -0.267 OA
HETATM   13  N   UNL     1       0.940   4.326  -2.069  0.00  0.00    -0.318 N 
HETATM   14  C   UNL     1       2.356   4.687  -2.129  0.00  0.00     0.159 C 
BRANCH  13  15
HETATM   15  C   UNL     1       0.410   3.606  -3.190  0.00  0.00     0.040 A 
HETATM   16  C   UNL     1      -0.876   3.856  -3.682  0.00  0.00     0.072 A 
HETATM   17  C   UNL     1      -1.389   3.090  -4.723  0.00  0.00     0.118 A 
HETATM   18  F   UNL     1      -2.636   3.326  -5.160  0.00  0.00    -0.206 F 
HETATM   19  C   UNL     1      -0.634   2.093  -5.319  0.00  0.00     0.042 A 
HETATM   20  C   UNL     1       0.667   1.871  -4.890  0.00  0.00     0.005 A 
HETATM   21  C   UNL     1       1.191   2.633  -3.840  0.00  0.00     0.030 A 
ENDBRANCH  13  15
ENDBRANCH   8  11
BRANCH   9  22
HETATM   22  O   UNL     1      -1.923   6.516  -0.005  0.00  0.00    -0.360 OA
HETATM   23  H   UNL     1      -0.970   6.587   0.225  0.00  0.00     0.217 HD
ENDBRANCH   9  22
BRANCH   1  24
HETATM   24  C   UNL     1      -2.777  -0.153  -0.151  0.00  0.00     0.100 C 
BRANCH  24  25
HETATM   25  C   UNL     1      -2.853  -0.797  -1.513  0.00  0.00    -0.052 A 
HETATM   26  C   UNL     1      -1.674  -1.115  -2.204  0.00  0.00     0.014 A 
HETATM   27  C   UNL     1      -1.719  -1.674  -3.488  0.00  0.00    -0.061 A 
HETATM   28  C   UNL     1      -0.458  -1.889  -4.268  0.00  0.00     0.048 C 
HETATM   29  C   UNL     1      -2.961  -1.954  -4.068  0.00  0.00     0.007 A 
HETATM   30  C   UNL     1      -4.139  -1.691  -3.372  0.00  0.00     0.001 A 
HETATM   31  C   UNL     1      -4.086  -1.118  -2.102  0.00  0.00     0.007 A 
ENDBRANCH  24  25
ENDBRANCH   1  24
TORSDOF 5
