MODEL 1
REMARK VINA RESULT:    -8.880      0.000      0.000
REMARK INTER + INTRA:         -12.714
REMARK INTER:                 -11.029
REMARK INTRA:                  -1.685
REMARK UNBOUND:                -0.979
REMARK  6 active torsions:
REMARK  status: ('A' for Active; 'I' for Inactive)
REMARK    1  A    between atoms: C_6  and  C_7 
REMARK    2  A    between atoms: C_7  and  N_8 
REMARK       I    between atoms: N_8  and  C_10 
REMARK    3  A    between atoms: C_10  and  C_12 
REMARK    4  A    between atoms: C_14  and  O_15 
REMARK    5  A    between atoms: C_22  and  C_23 
REMARK    6  A    between atoms: C_23  and  C_24 
ROOT
HETATM    1  C   UNL     1       6.518  10.083  22.541  0.00  0.00     0.158 A 
HETATM    2  C   UNL     1       7.804  10.841  22.191  0.00  0.00     0.010 A 
HETATM    3  C   UNL     1       6.752   9.008  23.616  0.00  0.00     0.062 A 
HETATM    4  C   UNL     1       7.951   8.671  24.118  0.00  0.00     0.065 A 
HETATM    5  C   UNL     1       9.114   9.391  23.625  0.00  0.00     0.064 A 
HETATM    6  C   UNL     1       8.996  10.476  22.674  0.00  0.00     0.016 A 
HETATM    7  N   UNL     1      10.354   9.217  23.905  0.00  0.00    -0.277 N 
HETATM    8  H   UNL     1      10.742   8.509  24.529  0.00  0.00     0.189 HD
HETATM    9  N   UNL     1      11.253  10.136  23.217  0.00  0.00    -0.178 NA
HETATM   10  C   UNL     1      10.410  10.855  22.505  0.00  0.00     0.071 A 
ENDROOT
BRANCH   1  11
HETATM   11  C   UNL     1       5.396  11.076  22.977  0.00  0.00     0.233 C 
HETATM   12  N   UNL     1       4.616  11.677  21.986  0.00  0.00    -0.351 N 
HETATM   13  C   UNL     1       4.923  11.619  20.560  0.00  0.00     0.153 C 
HETATM   14  O   UNL     1       5.210  11.292  24.177  0.00  0.00    -0.272 OA
BRANCH  12  15
HETATM   15  C   UNL     1       3.529  12.588  22.382  0.00  0.00     0.164 C 
BRANCH  15  16
HETATM   16  C   UNL     1       3.909  13.925  22.987  0.00  0.00    -0.040 A 
HETATM   17  C   UNL     1       5.133  14.539  22.670  0.00  0.00     0.009 A 
HETATM   18  C   UNL     1       5.615  15.615  23.429  0.00  0.00     0.001 A 
HETATM   19  C   UNL     1       4.873  16.107  24.500  0.00  0.00     0.000 A 
HETATM   20  C   UNL     1       3.627  15.554  24.784  0.00  0.00     0.001 A 
HETATM   21  C   UNL     1       3.143  14.478  24.028  0.00  0.00     0.009 A 
ENDBRANCH  15  16
ENDBRANCH  12  15
ENDBRANCH   1  11
BRANCH   3  22
HETATM   22  O   UNL     1       5.656   8.285  24.059  0.00  0.00    -0.364 OA
HETATM   23  H   UNL     1       5.804   7.326  23.947  0.00  0.00     0.217 HD
ENDBRANCH   3  22
BRANCH  10  24
HETATM   24  C   UNL     1      10.880  11.920  21.538  0.00  0.00     0.100 C 
BRANCH  24  25
HETATM   25  C   UNL     1      10.350  13.275  21.933  0.00  0.00    -0.052 A 
HETATM   26  C   UNL     1       9.392  13.918  21.141  0.00  0.00     0.007 A 
HETATM   27  C   UNL     1       8.962  15.206  21.459  0.00  0.00     0.001 A 
HETATM   28  C   UNL     1       9.485  15.867  22.569  0.00  0.00     0.007 A 
HETATM   29  C   UNL     1      10.436  15.240  23.382  0.00  0.00    -0.061 A 
HETATM   30  C   UNL     1      10.854  13.938  23.065  0.00  0.00     0.014 A 
HETATM   31  C   UNL     1      10.999  15.946  24.582  0.00  0.00     0.048 C 
ENDBRANCH  24  25
ENDBRANCH  10  24
TORSDOF 6
ENDMDL
MODEL 2
REMARK VINA RESULT:    -8.755      2.566      4.096
REMARK INTER + INTRA:         -12.549
REMARK INTER:                 -11.354
REMARK INTRA:                  -1.195
REMARK UNBOUND:                -0.979
REMARK  6 active torsions:
REMARK  status: ('A' for Active; 'I' for Inactive)
REMARK    1  A    between atoms: C_6  and  C_7 
REMARK    2  A    between atoms: C_7  and  N_8 
REMARK       I    between atoms: N_8  and  C_10 
REMARK    3  A    between atoms: C_10  and  C_12 
REMARK    4  A    between atoms: C_14  and  O_15 
REMARK    5  A    between atoms: C_22  and  C_23 
REMARK    6  A    between atoms: C_23  and  C_24 
ROOT
HETATM    1  C   UNL     1       7.598  13.745  21.734  0.00  0.00     0.158 A 
HETATM    2  C   UNL     1       8.814  14.356  22.437  0.00  0.00     0.010 A 
HETATM    3  C   UNL     1       7.976  12.532  20.867  0.00  0.00     0.062 A 
HETATM    4  C   UNL     1       9.231  12.110  20.643  0.00  0.00     0.065 A 
HETATM    5  C   UNL     1      10.313  12.842  21.283  0.00  0.00     0.064 A 
HETATM    6  C   UNL     1      10.061  13.947  22.182  0.00  0.00     0.016 A 
HETATM    7  N   UNL     1      11.580  12.668  21.180  0.00  0.00    -0.277 N 
HETATM    8  H   UNL     1      12.053  11.976  20.598  0.00  0.00     0.189 HD
HETATM    9  N   UNL     1      12.371  13.598  21.978  0.00  0.00    -0.178 NA
HETATM   10  C   UNL     1      11.436  14.329  22.547  0.00  0.00     0.071 A 
ENDROOT
BRANCH   1  11
HETATM   11  C   UNL     1       6.493  13.371  22.770  0.00  0.00     0.233 C 
HETATM   12  N   UNL     1       5.712  14.396  23.312  0.00  0.00    -0.351 N 
HETATM   13  C   UNL     1       6.005  15.816  23.150  0.00  0.00     0.153 C 
HETATM   14  O   UNL     1       6.320  12.188  23.072  0.00  0.00    -0.272 OA
BRANCH  12  15
HETATM   15  C   UNL     1       4.641  14.055  24.263  0.00  0.00     0.164 C 
BRANCH  15  16
HETATM   16  C   UNL     1       3.211  14.081  23.762  0.00  0.00    -0.040 A 
HETATM   17  C   UNL     1       2.173  14.583  24.566  0.00  0.00     0.009 A 
HETATM   18  C   UNL     1       0.831  14.352  24.234  0.00  0.00     0.001 A 
HETATM   19  C   UNL     1       0.505  13.637  23.084  0.00  0.00     0.000 A 
HETATM   20  C   UNL     1       1.520  13.192  22.241  0.00  0.00     0.001 A 
HETATM   21  C   UNL     1       2.863  13.421  22.572  0.00  0.00     0.009 A 
ENDBRANCH  15  16
ENDBRANCH  12  15
ENDBRANCH   1  11
BRANCH   3  22
HETATM   22  O   UNL     1       6.956  11.856  20.216  0.00  0.00    -0.364 OA
HETATM   23  H   UNL     1       7.116  10.893  20.227  0.00  0.00     0.217 HD
ENDBRANCH   3  22
BRANCH  10  24
HETATM   24  C   UNL     1      11.769  15.510  23.433  0.00  0.00     0.100 C 
BRANCH  24  25
HETATM   25  C   UNL     1      11.490  15.191  24.879  0.00  0.00    -0.052 A 
HETATM   26  C   UNL     1      10.386  15.756  25.528  0.00  0.00     0.007 A 
HETATM   27  C   UNL     1      10.172  15.529  26.887  0.00  0.00     0.001 A 
HETATM   28  C   UNL     1      11.060  14.738  27.614  0.00  0.00     0.007 A 
HETATM   29  C   UNL     1      12.164  14.153  26.986  0.00  0.00    -0.061 A 
HETATM   30  C   UNL     1      12.365  14.374  25.614  0.00  0.00     0.014 A 
HETATM   31  C   UNL     1      13.121  13.296  27.764  0.00  0.00     0.048 C 
ENDBRANCH  24  25
ENDBRANCH  10  24
TORSDOF 6
ENDMDL
MODEL 3
REMARK VINA RESULT:    -8.658      2.890      6.260
REMARK INTER + INTRA:         -12.421
REMARK INTER:                 -11.198
REMARK INTRA:                  -1.223
REMARK UNBOUND:                -0.979
REMARK  6 active torsions:
REMARK  status: ('A' for Active; 'I' for Inactive)
REMARK    1  A    between atoms: C_6  and  C_7 
REMARK    2  A    between atoms: C_7  and  N_8 
REMARK       I    between atoms: N_8  and  C_10 
REMARK    3  A    between atoms: C_10  and  C_12 
REMARK    4  A    between atoms: C_14  and  O_15 
REMARK    5  A    between atoms: C_22  and  C_23 
REMARK    6  A    between atoms: C_23  and  C_24 
ROOT
HETATM    1  C   UNL     1       4.850  11.563  22.419  0.00  0.00     0.158 A 
HETATM    2  C   UNL     1       4.934  13.074  22.662  0.00  0.00     0.010 A 
HETATM    3  C   UNL     1       3.590  10.943  23.049  0.00  0.00     0.062 A 
HETATM    4  C   UNL     1       2.715  11.602  23.824  0.00  0.00     0.065 A 
HETATM    5  C   UNL     1       2.964  13.014  24.071  0.00  0.00     0.064 A 
HETATM    6  C   UNL     1       4.074  13.713  23.461  0.00  0.00     0.016 A 
HETATM    7  N   UNL     1       2.312  13.834  24.812  0.00  0.00    -0.277 N 
HETATM    8  H   UNL     1       1.494  13.617  25.383  0.00  0.00     0.189 HD
HETATM    9  N   UNL     1       2.854  15.187  24.818  0.00  0.00    -0.178 NA
HETATM   10  C   UNL     1       3.889  15.067  24.012  0.00  0.00     0.071 A 
ENDROOT
BRANCH   1  11
HETATM   11  C   UNL     1       4.927  11.245  20.893  0.00  0.00     0.233 C 
HETATM   12  N   UNL     1       5.874  10.315  20.454  0.00  0.00    -0.351 N 
HETATM   13  C   UNL     1       6.948   9.789  21.289  0.00  0.00     0.153 C 
HETATM   14  O   UNL     1       4.147  11.801  20.117  0.00  0.00    -0.272 OA
BRANCH  12  15
HETATM   15  C   UNL     1       5.936   9.978  19.022  0.00  0.00     0.164 C 
BRANCH  15  16
HETATM   16  C   UNL     1       4.926   8.985  18.482  0.00  0.00    -0.040 A 
HETATM   17  C   UNL     1       4.132   9.297  17.366  0.00  0.00     0.009 A 
HETATM   18  C   UNL     1       3.014   8.516  17.038  0.00  0.00     0.001 A 
HETATM   19  C   UNL     1       2.686   7.401  17.807  0.00  0.00     0.000 A 
HETATM   20  C   UNL     1       3.503   7.039  18.875  0.00  0.00     0.001 A 
HETATM   21  C   UNL     1       4.621   7.819  19.204  0.00  0.00     0.009 A 
ENDBRANCH  15  16
ENDBRANCH  12  15
ENDBRANCH   1  11
BRANCH   3  22
HETATM   22  O   UNL     1       3.369   9.588  22.857  0.00  0.00    -0.364 OA
HETATM   23  H   UNL     1       2.415   9.384  22.889  0.00  0.00     0.217 HD
ENDBRANCH   3  22
BRANCH  10  24
HETATM   24  C   UNL     1       4.841  16.214  23.751  0.00  0.00     0.100 C 
BRANCH  24  25
HETATM   25  C   UNL     1       6.273  15.765  23.897  0.00  0.00    -0.052 A 
HETATM   26  C   UNL     1       6.752  15.321  25.135  0.00  0.00     0.007 A 
HETATM   27  C   UNL     1       8.096  14.984  25.294  0.00  0.00     0.001 A 
HETATM   28  C   UNL     1       8.977  15.090  24.219  0.00  0.00     0.007 A 
HETATM   29  C   UNL     1       8.519  15.521  22.969  0.00  0.00    -0.061 A 
HETATM   30  C   UNL     1       7.162  15.844  22.813  0.00  0.00     0.014 A 
HETATM   31  C   UNL     1       9.464  15.632  21.807  0.00  0.00     0.048 C 
ENDBRANCH  24  25
ENDBRANCH  10  24
TORSDOF 6
ENDMDL
MODEL 4
REMARK VINA RESULT:    -8.488      3.090      7.103
REMARK INTER + INTRA:         -12.196
REMARK INTER:                 -11.620
REMARK INTRA:                  -0.576
REMARK UNBOUND:                -0.979
REMARK  6 active torsions:
REMARK  status: ('A' for Active; 'I' for Inactive)
REMARK    1  A    between atoms: C_6  and  C_7 
REMARK    2  A    between atoms: C_7  and  N_8 
REMARK       I    between atoms: N_8  and  C_10 
REMARK    3  A    between atoms: C_10  and  C_12 
REMARK    4  A    between atoms: C_14  and  O_15 
REMARK    5  A    between atoms: C_22  and  C_23 
REMARK    6  A    between atoms: C_23  and  C_24 
ROOT
HETATM    1  C   UNL     1       7.822  14.251  21.848  0.00  0.00     0.158 A 
HETATM    2  C   UNL     1       7.479  12.871  21.275  0.00  0.00     0.010 A 
HETATM    3  C   UNL     1       6.748  14.757  22.825  0.00  0.00     0.062 A 
HETATM    4  C   UNL     1       5.582  14.139  23.074  0.00  0.00     0.065 A 
HETATM    5  C   UNL     1       5.324  12.885  22.383  0.00  0.00     0.064 A 
HETATM    6  C   UNL     1       6.302  12.280  21.505  0.00  0.00     0.016 A 
HETATM    7  N   UNL     1       4.276  12.146  22.411  0.00  0.00    -0.277 N 
HETATM    8  H   UNL     1       3.415  12.332  22.927  0.00  0.00     0.189 HD
HETATM    9  N   UNL     1       4.374  10.948  21.586  0.00  0.00    -0.178 NA
HETATM   10  C   UNL     1       5.580  11.071  21.073  0.00  0.00     0.071 A 
ENDROOT
BRANCH   1  11
HETATM   11  C   UNL     1       9.229  14.232  22.523  0.00  0.00     0.233 C 
HETATM   12  N   UNL     1      10.010  15.390  22.468  0.00  0.00    -0.351 N 
HETATM   13  C   UNL     1       9.700  16.543  21.630  0.00  0.00     0.153 C 
HETATM   14  O   UNL     1       9.611  13.212  23.101  0.00  0.00    -0.272 OA
BRANCH  12  15
HETATM   15  C   UNL     1      11.325  15.400  23.132  0.00  0.00     0.164 C 
BRANCH  15  16
HETATM   16  C   UNL     1      11.356  15.366  24.646  0.00  0.00    -0.040 A 
HETATM   17  C   UNL     1      12.395  14.715  25.333  0.00  0.00     0.009 A 
HETATM   18  C   UNL     1      12.286  14.433  26.702  0.00  0.00     0.001 A 
HETATM   19  C   UNL     1      11.150  14.818  27.410  0.00  0.00     0.000 A 
HETATM   20  C   UNL     1      10.142  15.525  26.759  0.00  0.00     0.001 A 
HETATM   21  C   UNL     1      10.248  15.807  25.390  0.00  0.00     0.009 A 
ENDBRANCH  15  16
ENDBRANCH  12  15
ENDBRANCH   1  11
BRANCH   3  22
HETATM   22  O   UNL     1       6.964  15.974  23.454  0.00  0.00    -0.364 OA
HETATM   23  H   UNL     1       7.848  16.326  23.233  0.00  0.00     0.217 HD
ENDBRANCH   3  22
BRANCH  10  24
HETATM   24  C   UNL     1       6.128  10.085  20.063  0.00  0.00     0.100 C 
BRANCH  24  25
HETATM   25  C   UNL     1       5.294  10.086  18.807  0.00  0.00    -0.052 A 
HETATM   26  C   UNL     1       5.293   8.973  17.959  0.00  0.00     0.007 A 
HETATM   27  C   UNL     1       4.590   9.003  16.755  0.00  0.00     0.001 A 
HETATM   28  C   UNL     1       3.882  10.145  16.384  0.00  0.00     0.007 A 
HETATM   29  C   UNL     1       3.859  11.266  17.221  0.00  0.00    -0.061 A 
HETATM   30  C   UNL     1       4.558  11.224  18.438  0.00  0.00     0.014 A 
HETATM   31  C   UNL     1       3.094  12.497  16.828  0.00  0.00     0.048 C 
ENDBRANCH  24  25
ENDBRANCH  10  24
TORSDOF 6
ENDMDL
MODEL 5
REMARK VINA RESULT:    -8.452      3.059      8.130
REMARK INTER + INTRA:         -12.149
REMARK INTER:                 -11.132
REMARK INTRA:                  -1.018
REMARK UNBOUND:                -0.979
REMARK  6 active torsions:
REMARK  status: ('A' for Active; 'I' for Inactive)
REMARK    1  A    between atoms: C_6  and  C_7 
REMARK    2  A    between atoms: C_7  and  N_8 
REMARK       I    between atoms: N_8  and  C_10 
REMARK    3  A    between atoms: C_10  and  C_12 
REMARK    4  A    between atoms: C_14  and  O_15 
REMARK    5  A    between atoms: C_22  and  C_23 
REMARK    6  A    between atoms: C_23  and  C_24 
ROOT
HETATM    1  C   UNL     1       6.714  13.814  22.351  0.00  0.00     0.158 A 
HETATM    2  C   UNL     1       5.398  13.212  22.856  0.00  0.00     0.010 A 
HETATM    3  C   UNL     1       6.902  15.269  22.813  0.00  0.00     0.062 A 
HETATM    4  C   UNL     1       5.985  15.988  23.479  0.00  0.00     0.065 A 
HETATM    5  C   UNL     1       4.726  15.336  23.807  0.00  0.00     0.064 A 
HETATM    6  C   UNL     1       4.479  13.946  23.491  0.00  0.00     0.016 A 
HETATM    7  N   UNL     1       3.688  15.823  24.382  0.00  0.00    -0.277 N 
HETATM    8  H   UNL     1       3.564  16.786  24.698  0.00  0.00     0.189 HD
HETATM    9  N   UNL     1       2.601  14.866  24.552  0.00  0.00    -0.178 NA
HETATM   10  C   UNL     1       3.112  13.779  24.013  0.00  0.00     0.071 A 
ENDROOT
BRANCH   1  11
HETATM   11  C   UNL     1       7.925  12.929  22.781  0.00  0.00     0.233 C 
HETATM   12  N   UNL     1       9.004  12.802  21.901  0.00  0.00    -0.351 N 
HETATM   13  C   UNL     1       8.981  13.253  20.513  0.00  0.00     0.153 C 
HETATM   14  O   UNL     1       7.914  12.380  23.885  0.00  0.00    -0.272 OA
BRANCH  12  15
HETATM   15  C   UNL     1      10.170  12.000  22.307  0.00  0.00     0.164 C 
BRANCH  15  16
HETATM   16  C   UNL     1      11.205  12.654  23.200  0.00  0.00    -0.040 A 
HETATM   17  C   UNL     1      11.266  12.357  24.572  0.00  0.00     0.009 A 
HETATM   18  C   UNL     1      12.016  13.155  25.448  0.00  0.00     0.001 A 
HETATM   19  C   UNL     1      12.734  14.246  24.963  0.00  0.00     0.000 A 
HETATM   20  C   UNL     1      12.739  14.512  23.596  0.00  0.00     0.001 A 
HETATM   21  C   UNL     1      11.989  13.717  22.719  0.00  0.00     0.009 A 
ENDBRANCH  15  16
ENDBRANCH  12  15
ENDBRANCH   1  11
BRANCH   3  22
HETATM   22  O   UNL     1       8.079  15.913  22.465  0.00  0.00    -0.364 OA
HETATM   23  H   UNL     1       8.149  16.776  22.916  0.00  0.00     0.217 HD
ENDBRANCH   3  22
BRANCH  10  24
HETATM   24  C   UNL     1       2.315  12.500  23.875  0.00  0.00     0.100 C 
BRANCH  24  25
HETATM   25  C   UNL     1       1.127  12.703  22.969  0.00  0.00    -0.052 A 
HETATM   26  C   UNL     1       1.304  13.197  21.672  0.00  0.00     0.007 A 
HETATM   27  C   UNL     1       0.202  13.465  20.861  0.00  0.00     0.001 A 
HETATM   28  C   UNL     1      -1.090  13.246  21.338  0.00  0.00     0.007 A 
HETATM   29  C   UNL     1      -1.292  12.743  22.628  0.00  0.00    -0.061 A 
HETATM   30  C   UNL     1      -0.177  12.462  23.433  0.00  0.00     0.014 A 
HETATM   31  C   UNL     1      -2.681  12.502  23.144  0.00  0.00     0.048 C 
ENDBRANCH  24  25
ENDBRANCH  10  24
TORSDOF 6
ENDMDL
MODEL 6
REMARK VINA RESULT:    -8.441      2.644      6.698
REMARK INTER + INTRA:         -12.135
REMARK INTER:                 -11.056
REMARK INTRA:                  -1.078
REMARK UNBOUND:                -0.979
REMARK  6 active torsions:
REMARK  status: ('A' for Active; 'I' for Inactive)
REMARK    1  A    between atoms: C_6  and  C_7 
REMARK    2  A    between atoms: C_7  and  N_8 
REMARK       I    between atoms: N_8  and  C_10 
REMARK    3  A    between atoms: C_10  and  C_12 
REMARK    4  A    between atoms: C_14  and  O_15 
REMARK    5  A    between atoms: C_22  and  C_23 
REMARK    6  A    between atoms: C_23  and  C_24 
ROOT
HETATM    1  C   UNL     1       8.677  12.389  22.050  0.00  0.00     0.158 A 
HETATM    2  C   UNL     1       7.187  12.206  22.360  0.00  0.00     0.010 A 
HETATM    3  C   UNL     1       8.972  12.301  20.543  0.00  0.00     0.062 A 
HETATM    4  C   UNL     1       8.069  11.985  19.600  0.00  0.00     0.065 A 
HETATM    5  C   UNL     1       6.705  11.726  20.034  0.00  0.00     0.064 A 
HETATM    6  C   UNL     1       6.304  11.861  21.418  0.00  0.00     0.016 A 
HETATM    7  N   UNL     1       5.691  11.358  19.341  0.00  0.00    -0.277 N 
HETATM    8  H   UNL     1       5.679  11.162  18.339  0.00  0.00     0.189 HD
HETATM    9  N   UNL     1       4.468  11.196  20.118  0.00  0.00    -0.178 NA
HETATM   10  C   UNL     1       4.877  11.501  21.332  0.00  0.00     0.071 A 
ENDROOT
BRANCH   1  11
HETATM   11  C   UNL     1       9.203  13.732  22.646  0.00  0.00     0.233 C 
HETATM   12  N   UNL     1      10.477  13.752  23.221  0.00  0.00    -0.351 N 
HETATM   13  C   UNL     1      11.260  12.555  23.509  0.00  0.00     0.153 C 
HETATM   14  O   UNL     1       8.498  14.742  22.581  0.00  0.00    -0.272 OA
BRANCH  12  15
HETATM   15  C   UNL     1      11.002  15.020  23.756  0.00  0.00     0.164 C 
BRANCH  15  16
HETATM   16  C   UNL     1      11.432  15.053  25.208  0.00  0.00    -0.040 A 
HETATM   17  C   UNL     1      12.770  14.820  25.570  0.00  0.00     0.009 A 
HETATM   18  C   UNL     1      13.120  14.568  26.904  0.00  0.00     0.001 A 
HETATM   19  C   UNL     1      12.144  14.567  27.899  0.00  0.00     0.000 A 
HETATM   20  C   UNL     1      10.825  14.865  27.566  0.00  0.00     0.001 A 
HETATM   21  C   UNL     1      10.473  15.116  26.233  0.00  0.00     0.009 A 
ENDBRANCH  15  16
ENDBRANCH  12  15
ENDBRANCH   1  11
BRANCH   3  22
HETATM   22  O   UNL     1      10.278  12.501  20.125  0.00  0.00    -0.364 OA
HETATM   23  H   UNL     1      10.501  13.451  20.128  0.00  0.00     0.217 HD
ENDBRANCH   3  22
BRANCH  10  24
HETATM   24  C   UNL     1       3.965  11.404  22.536  0.00  0.00     0.100 C 
BRANCH  24  25
HETATM   25  C   UNL     1       3.272  12.718  22.790  0.00  0.00    -0.052 A 
HETATM   26  C   UNL     1       1.934  12.895  22.421  0.00  0.00     0.007 A 
HETATM   27  C   UNL     1       1.315  14.135  22.578  0.00  0.00     0.001 A 
HETATM   28  C   UNL     1       2.027  15.212  23.104  0.00  0.00     0.007 A 
HETATM   29  C   UNL     1       3.362  15.057  23.491  0.00  0.00    -0.061 A 
HETATM   30  C   UNL     1       3.974  13.803  23.343  0.00  0.00     0.014 A 
HETATM   31  C   UNL     1       4.132  16.213  24.062  0.00  0.00     0.048 C 
ENDBRANCH  24  25
ENDBRANCH  10  24
TORSDOF 6
ENDMDL
MODEL 7
REMARK VINA RESULT:    -8.395      1.651      2.846
REMARK INTER + INTRA:         -12.073
REMARK INTER:                 -10.024
REMARK INTRA:                  -2.049
REMARK UNBOUND:                -0.979
REMARK  6 active torsions:
REMARK  status: ('A' for Active; 'I' for Inactive)
REMARK    1  A    between atoms: C_6  and  C_7 
REMARK    2  A    between atoms: C_7  and  N_8 
REMARK       I    between atoms: N_8  and  C_10 
REMARK    3  A    between atoms: C_10  and  C_12 
REMARK    4  A    between atoms: C_14  and  O_15 
REMARK    5  A    between atoms: C_22  and  C_23 
REMARK    6  A    between atoms: C_23  and  C_24 
ROOT
HETATM    1  C   UNL     1       7.008  10.150  22.802  0.00  0.00     0.158 A 
HETATM    2  C   UNL     1       7.750  11.476  23.004  0.00  0.00     0.010 A 
HETATM    3  C   UNL     1       7.813   8.949  23.327  0.00  0.00     0.062 A 
HETATM    4  C   UNL     1       9.067   9.012  23.802  0.00  0.00     0.065 A 
HETATM    5  C   UNL     1       9.706  10.318  23.842  0.00  0.00     0.064 A 
HETATM    6  C   UNL     1       9.010  11.524  23.448  0.00  0.00     0.016 A 
HETATM    7  N   UNL     1      10.901  10.624  24.196  0.00  0.00    -0.277 N 
HETATM    8  H   UNL     1      11.629   9.977  24.501  0.00  0.00     0.189 HD
HETATM    9  N   UNL     1      11.197  12.049  24.110  0.00  0.00    -0.178 NA
HETATM   10  C   UNL     1      10.057  12.536  23.665  0.00  0.00     0.071 A 
ENDROOT
BRANCH   1  11
HETATM   11  C   UNL     1       5.593  10.206  23.458  0.00  0.00     0.233 C 
HETATM   12  N   UNL     1       4.524  10.687  22.695  0.00  0.00    -0.351 N 
HETATM   13  C   UNL     1       4.677  11.353  21.407  0.00  0.00     0.153 C 
HETATM   14  O   UNL     1       5.444   9.810  24.616  0.00  0.00    -0.272 OA
BRANCH  12  15
HETATM   15  C   UNL     1       3.176  10.712  23.287  0.00  0.00     0.164 C 
BRANCH  15  16
HETATM   16  C   UNL     1       2.628  12.047  23.749  0.00  0.00    -0.040 A 
HETATM   17  C   UNL     1       1.486  12.605  23.149  0.00  0.00     0.009 A 
HETATM   18  C   UNL     1       1.144  13.947  23.366  0.00  0.00     0.001 A 
HETATM   19  C   UNL     1       1.922  14.745  24.202  0.00  0.00     0.000 A 
HETATM   20  C   UNL     1       3.017  14.188  24.858  0.00  0.00     0.001 A 
HETATM   21  C   UNL     1       3.362  12.846  24.641  0.00  0.00     0.009 A 
ENDBRANCH  15  16
ENDBRANCH  12  15
ENDBRANCH   1  11
BRANCH   3  22
HETATM   22  O   UNL     1       7.229   7.694  23.251  0.00  0.00    -0.364 OA
HETATM   23  H   UNL     1       7.662   7.151  22.565  0.00  0.00     0.217 HD
ENDBRANCH   3  22
BRANCH  10  24
HETATM   24  C   UNL     1       9.885  14.003  23.333  0.00  0.00     0.100 C 
BRANCH  24  25
HETATM   25  C   UNL     1       8.707  14.584  24.071  0.00  0.00    -0.052 A 
HETATM   26  C   UNL     1       8.650  14.529  25.468  0.00  0.00     0.007 A 
HETATM   27  C   UNL     1       7.524  14.990  26.149  0.00  0.00     0.001 A 
HETATM   28  C   UNL     1       6.441  15.510  25.441  0.00  0.00     0.007 A 
HETATM   29  C   UNL     1       6.479  15.586  24.045  0.00  0.00    -0.061 A 
HETATM   30  C   UNL     1       7.621  15.132  23.368  0.00  0.00     0.014 A 
HETATM   31  C   UNL     1       5.316  16.149  23.279  0.00  0.00     0.048 C 
ENDBRANCH  24  25
ENDBRANCH  10  24
TORSDOF 6
ENDMDL
MODEL 8
REMARK VINA RESULT:    -8.388      2.277      5.065
REMARK INTER + INTRA:         -12.065
REMARK INTER:                 -10.070
REMARK INTRA:                  -1.994
REMARK UNBOUND:                -0.979
REMARK  6 active torsions:
REMARK  status: ('A' for Active; 'I' for Inactive)
REMARK    1  A    between atoms: C_6  and  C_7 
REMARK    2  A    between atoms: C_7  and  N_8 
REMARK       I    between atoms: N_8  and  C_10 
REMARK    3  A    between atoms: C_10  and  C_12 
REMARK    4  A    between atoms: C_14  and  O_15 
REMARK    5  A    between atoms: C_22  and  C_23 
REMARK    6  A    between atoms: C_23  and  C_24 
ROOT
HETATM    1  C   UNL     1       9.428  13.421  23.357  0.00  0.00     0.158 A 
HETATM    2  C   UNL     1       8.961  11.974  23.550  0.00  0.00     0.010 A 
HETATM    3  C   UNL     1      10.603  13.525  22.369  0.00  0.00     0.062 A 
HETATM    4  C   UNL     1      11.239  12.479  21.819  0.00  0.00     0.065 A 
HETATM    5  C   UNL     1      10.769  11.146  22.167  0.00  0.00     0.064 A 
HETATM    6  C   UNL     1       9.621  10.939  23.022  0.00  0.00     0.016 A 
HETATM    7  N   UNL     1      11.241  10.005  21.819  0.00  0.00    -0.277 N 
HETATM    8  H   UNL     1      12.063   9.839  21.236  0.00  0.00     0.189 HD
HETATM    9  N   UNL     1      10.504   8.869  22.361  0.00  0.00    -0.178 NA
HETATM   10  C   UNL     1       9.563   9.467  23.061  0.00  0.00     0.071 A 
ENDROOT
BRANCH   1  11
HETATM   11  C   UNL     1       8.239  14.329  22.911  0.00  0.00     0.233 C 
HETATM   12  N   UNL     1       7.534  15.032  23.891  0.00  0.00    -0.351 N 
HETATM   13  C   UNL     1       7.682  14.804  25.324  0.00  0.00     0.153 C 
HETATM   14  O   UNL     1       7.962  14.421  21.713  0.00  0.00    -0.272 OA
BRANCH  12  15
HETATM   15  C   UNL     1       6.433  15.921  23.483  0.00  0.00     0.164 C 
BRANCH  15  16
HETATM   16  C   UNL     1       5.014  15.419  23.657  0.00  0.00    -0.040 A 
HETATM   17  C   UNL     1       4.217  15.862  24.728  0.00  0.00     0.009 A 
HETATM   18  C   UNL     1       3.027  15.201  25.060  0.00  0.00     0.001 A 
HETATM   19  C   UNL     1       2.602  14.103  24.315  0.00  0.00     0.000 A 
HETATM   20  C   UNL     1       3.343  13.695  23.209  0.00  0.00     0.001 A 
HETATM   21  C   UNL     1       4.535  14.353  22.876  0.00  0.00     0.009 A 
ENDBRANCH  15  16
ENDBRANCH  12  15
ENDBRANCH   1  11
BRANCH   3  22
HETATM   22  O   UNL     1      11.086  14.788  22.067  0.00  0.00    -0.364 OA
HETATM   23  H   UNL     1      10.396  15.332  21.643  0.00  0.00     0.217 HD
ENDBRANCH   3  22
BRANCH  10  24
HETATM   24  C   UNL     1       8.567   8.691  23.895  0.00  0.00     0.100 C 
BRANCH  24  25
HETATM   25  C   UNL     1       7.163   8.909  23.393  0.00  0.00    -0.052 A 
HETATM   26  C   UNL     1       6.835   8.619  22.063  0.00  0.00     0.007 A 
HETATM   27  C   UNL     1       5.559   8.897  21.573  0.00  0.00     0.001 A 
HETATM   28  C   UNL     1       4.598   9.471  22.404  0.00  0.00     0.007 A 
HETATM   29  C   UNL     1       4.899   9.760  23.739  0.00  0.00    -0.061 A 
HETATM   30  C   UNL     1       6.180   9.464  24.229  0.00  0.00     0.014 A 
HETATM   31  C   UNL     1       3.866  10.374  24.639  0.00  0.00     0.048 C 
ENDBRANCH  24  25
ENDBRANCH  10  24
TORSDOF 6
ENDMDL
MODEL 9
REMARK VINA RESULT:    -8.244      2.783      4.128
REMARK INTER + INTRA:         -11.874
REMARK INTER:                 -10.895
REMARK INTRA:                  -0.979
REMARK UNBOUND:                -0.979
REMARK  6 active torsions:
REMARK  status: ('A' for Active; 'I' for Inactive)
REMARK    1  A    between atoms: C_6  and  C_7 
REMARK    2  A    between atoms: C_7  and  N_8 
REMARK       I    between atoms: N_8  and  C_10 
REMARK    3  A    between atoms: C_10  and  C_12 
REMARK    4  A    between atoms: C_14  and  O_15 
REMARK    5  A    between atoms: C_22  and  C_23 
REMARK    6  A    between atoms: C_23  and  C_24 
ROOT
HETATM    1  C   UNL     1       4.791  12.767  22.199  0.00  0.00     0.158 A 
HETATM    2  C   UNL     1       5.919  12.686  23.233  0.00  0.00     0.010 A 
HETATM    3  C   UNL     1       5.033  11.831  21.002  0.00  0.00     0.062 A 
HETATM    4  C   UNL     1       6.147  11.108  20.805  0.00  0.00     0.065 A 
HETATM    5  C   UNL     1       7.196  11.200  21.808  0.00  0.00     0.064 A 
HETATM    6  C   UNL     1       7.036  11.987  23.012  0.00  0.00     0.016 A 
HETATM    7  N   UNL     1       8.358  10.657  21.817  0.00  0.00    -0.277 N 
HETATM    8  H   UNL     1       8.758  10.065  21.088  0.00  0.00     0.189 HD
HETATM    9  N   UNL     1       9.151  10.972  23.000  0.00  0.00    -0.178 NA
HETATM   10  C   UNL     1       8.333  11.756  23.672  0.00  0.00     0.071 A 
ENDROOT
BRANCH   1  11
HETATM   11  C   UNL     1       3.410  12.477  22.865  0.00  0.00     0.233 C 
HETATM   12  N   UNL     1       2.653  13.558  23.325  0.00  0.00    -0.351 N 
HETATM   13  C   UNL     1       3.160  14.922  23.434  0.00  0.00     0.153 C 
HETATM   14  O   UNL     1       3.011  11.314  22.954  0.00  0.00    -0.272 OA
BRANCH  12  15
HETATM   15  C   UNL     1       1.331  13.305  23.924  0.00  0.00     0.164 C 
BRANCH  15  16
HETATM   16  C   UNL     1       0.177  12.996  22.992  0.00  0.00    -0.040 A 
HETATM   17  C   UNL     1       0.255  13.299  21.621  0.00  0.00     0.009 A 
HETATM   18  C   UNL     1      -0.892  13.285  20.815  0.00  0.00     0.001 A 
HETATM   19  C   UNL     1      -2.129  12.946  21.360  0.00  0.00     0.000 A 
HETATM   20  C   UNL     1      -2.211  12.577  22.700  0.00  0.00     0.001 A 
HETATM   21  C   UNL     1      -1.066  12.592  23.508  0.00  0.00     0.009 A 
ENDBRANCH  15  16
ENDBRANCH  12  15
ENDBRANCH   1  11
BRANCH   3  22
HETATM   22  O   UNL     1       4.059  11.772  20.017  0.00  0.00    -0.364 OA
HETATM   23  H   UNL     1       4.424  11.404  19.190  0.00  0.00     0.217 HD
ENDBRANCH   3  22
BRANCH  10  24
HETATM   24  C   UNL     1       8.742  12.420  24.968  0.00  0.00     0.100 C 
BRANCH  24  25
HETATM   25  C   UNL     1       9.558  13.660  24.702  0.00  0.00    -0.052 A 
HETATM   26  C   UNL     1      10.423  14.161  25.681  0.00  0.00     0.007 A 
HETATM   27  C   UNL     1      11.116  15.353  25.469  0.00  0.00     0.001 A 
HETATM   28  C   UNL     1      10.949  16.059  24.279  0.00  0.00     0.007 A 
HETATM   29  C   UNL     1      10.098  15.572  23.281  0.00  0.00    -0.061 A 
HETATM   30  C   UNL     1       9.415  14.365  23.495  0.00  0.00     0.014 A 
HETATM   31  C   UNL     1       9.919  16.327  21.995  0.00  0.00     0.048 C 
ENDBRANCH  24  25
ENDBRANCH  10  24
TORSDOF 6
ENDMDL
