MODEL 1
REMARK VINA RESULT:    -7.806      0.000      0.000
REMARK INTER + INTRA:         -11.134
REMARK INTER:                 -10.431
REMARK INTRA:                  -0.704
REMARK UNBOUND:                -0.818
REMARK  6 active torsions:
REMARK  status: ('A' for Active; 'I' for Inactive)
REMARK    1  A    between atoms: C_2  and  C_3 
REMARK    2  A    between atoms: C_3  and  C_4 
REMARK    3  A    between atoms: C_11  and  C_15 
REMARK    4  A    between atoms: C_12  and  O_14 
REMARK       I    between atoms: C_15  and  N_17 
REMARK    5  A    between atoms: N_17  and  C_19 
REMARK    6  A    between atoms: C_22  and  N_25 
ROOT
HETATM    1  C   UNL     1       7.838  13.800  23.763  0.00  0.00     0.260 C 
HETATM    2  O   UNL     1       7.519  12.876  24.519  0.00  0.00    -0.267 OA
HETATM    3  N   UNL     1       6.894  14.535  23.011  0.00  0.00    -0.318 N 
HETATM    4  C   UNL     1       7.228  15.527  21.988  0.00  0.00     0.159 C 
ENDROOT
BRANCH   1   5
HETATM    5  C   UNL     1       9.311  14.056  23.724  0.00  0.00     0.066 A 
HETATM    6  C   UNL     1      10.008  13.375  22.695  0.00  0.00     0.035 A 
HETATM    7  C   UNL     1      11.383  13.610  22.476  0.00  0.00     0.019 A 
HETATM    8  C   UNL     1      12.363  13.231  21.519  0.00  0.00     0.067 A 
HETATM    9  C   UNL     1      12.046  14.466  23.346  0.00  0.00     0.065 A 
HETATM   10  N   UNL     1      13.561  13.771  21.798  0.00  0.00    -0.178 NA
HETATM   11  N   UNL     1      13.345  14.484  22.912  0.00  0.00    -0.277 N 
HETATM   12  H   UNL     1      14.122  15.000  23.310  0.00  0.00     0.189 HD
HETATM   13  C   UNL     1      11.406  15.155  24.376  0.00  0.00     0.069 A 
HETATM   14  C   UNL     1      10.015  14.990  24.494  0.00  0.00     0.083 A 
BRANCH   8  15
HETATM   15  C   UNL     1      12.194  12.411  20.281  0.00  0.00     0.062 C 
BRANCH  15  16
HETATM   16  C   UNL     1      13.247  11.307  20.155  0.00  0.00     0.002 C 
HETATM   17  C   UNL     1      13.031  10.205  21.181  0.00  0.00     0.005 C 
ENDBRANCH  15  16
ENDBRANCH   8  15
BRANCH  14  18
HETATM   18  O   UNL     1       9.417  15.884  25.339  0.00  0.00    -0.360 OA
HETATM   19  H   UNL     1       8.604  15.463  25.674  0.00  0.00     0.217 HD
ENDBRANCH  14  18
ENDBRANCH   1   5
BRANCH   3  20
HETATM   20  C   UNL     1       5.482  14.303  23.223  0.00  0.00     0.037 A 
HETATM   21  C   UNL     1       4.648  15.302  23.736  0.00  0.00     0.032 A 
HETATM   22  C   UNL     1       3.279  15.078  23.957  0.00  0.00     0.031 A 
HETATM   23  C   UNL     1       2.682  13.846  23.683  0.00  0.00     0.030 A 
HETATM   24  C   UNL     1       3.517  12.862  23.134  0.00  0.00     0.031 A 
HETATM   25  C   UNL     1       4.884  13.084  22.894  0.00  0.00     0.032 A 
BRANCH  23  26
HETATM   26  N   UNL     1       1.338  13.605  23.871  0.00  0.00    -0.377 N 
HETATM   27  C   UNL     1       0.400  13.385  22.759  0.00  0.00     0.149 C 
HETATM   28  C   UNL     1      -0.637  12.338  23.207  0.00  0.00     0.187 C 
HETATM   29  O   UNL     1      -1.316  12.729  24.415  0.00  0.00    -0.388 OA
HETATM   30  C   UNL     1      -0.370  12.934  25.480  0.00  0.00     0.187 C 
HETATM   31  C   UNL     1       0.658  14.015  25.112  0.00  0.00     0.149 C 
ENDBRANCH  23  26
ENDBRANCH   3  20
TORSDOF 6
ENDMDL
MODEL 2
REMARK VINA RESULT:    -7.691      2.055      2.633
REMARK INTER + INTRA:         -10.982
REMARK INTER:                 -10.122
REMARK INTRA:                  -0.860
REMARK UNBOUND:                -0.818
REMARK  6 active torsions:
REMARK  status: ('A' for Active; 'I' for Inactive)
REMARK    1  A    between atoms: C_2  and  C_3 
REMARK    2  A    between atoms: C_3  and  C_4 
REMARK    3  A    between atoms: C_11  and  C_15 
REMARK    4  A    between atoms: C_12  and  O_14 
REMARK       I    between atoms: C_15  and  N_17 
REMARK    5  A    between atoms: N_17  and  C_19 
REMARK    6  A    between atoms: C_22  and  N_25 
ROOT
HETATM    1  C   UNL     1       5.938  13.755  24.494  0.00  0.00     0.260 C 
HETATM    2  O   UNL     1       5.789  12.592  24.887  0.00  0.00    -0.267 OA
HETATM    3  N   UNL     1       4.854  14.578  24.111  0.00  0.00    -0.318 N 
HETATM    4  C   UNL     1       4.985  15.899  23.494  0.00  0.00     0.159 C 
ENDROOT
BRANCH   1   5
HETATM    5  C   UNL     1       7.366  14.195  24.464  0.00  0.00     0.066 A 
HETATM    6  C   UNL     1       7.981  14.140  23.188  0.00  0.00     0.035 A 
HETATM    7  C   UNL     1       9.291  14.628  22.996  0.00  0.00     0.019 A 
HETATM    8  C   UNL     1      10.170  14.847  21.900  0.00  0.00     0.067 A 
HETATM    9  C   UNL     1       9.986  15.090  24.107  0.00  0.00     0.065 A 
HETATM   10  N   UNL     1      11.344  15.362  22.302  0.00  0.00    -0.178 NA
HETATM   11  N   UNL     1      11.212  15.472  23.632  0.00  0.00    -0.277 N 
HETATM   12  H   UNL     1      11.987  15.856  24.160  0.00  0.00     0.189 HD
HETATM   13  C   UNL     1       9.427  15.159  25.383  0.00  0.00     0.069 A 
HETATM   14  C   UNL     1       8.082  14.775  25.518  0.00  0.00     0.083 A 
BRANCH   8  15
HETATM   15  C   UNL     1       9.913  14.646  20.441  0.00  0.00     0.062 C 
BRANCH  15  16
HETATM   16  C   UNL     1       9.698  13.176  20.076  0.00  0.00     0.002 C 
HETATM   17  C   UNL     1       8.610  13.011  19.026  0.00  0.00     0.005 C 
ENDBRANCH  15  16
ENDBRANCH   8  15
BRANCH  14  18
HETATM   18  O   UNL     1       7.524  15.113  26.721  0.00  0.00    -0.360 OA
HETATM   19  H   UNL     1       6.573  14.905  26.665  0.00  0.00     0.217 HD
ENDBRANCH  14  18
ENDBRANCH   1   5
BRANCH   3  20
HETATM   20  C   UNL     1       3.501  14.107  24.307  0.00  0.00     0.037 A 
HETATM   21  C   UNL     1       2.778  14.427  25.462  0.00  0.00     0.032 A 
HETATM   22  C   UNL     1       1.469  13.962  25.664  0.00  0.00     0.031 A 
HETATM   23  C   UNL     1       0.824  13.151  24.729  0.00  0.00     0.030 A 
HETATM   24  C   UNL     1       1.542  12.865  23.558  0.00  0.00     0.031 A 
HETATM   25  C   UNL     1       2.845  13.342  23.340  0.00  0.00     0.032 A 
BRANCH  23  26
HETATM   26  N   UNL     1      -0.468  12.697  24.892  0.00  0.00    -0.377 N 
HETATM   27  C   UNL     1      -1.501  12.830  23.854  0.00  0.00     0.149 C 
HETATM   28  C   UNL     1      -2.395  11.577  23.903  0.00  0.00     0.187 C 
HETATM   29  O   UNL     1      -2.966  11.368  25.208  0.00  0.00    -0.388 OA
HETATM   30  C   UNL     1      -1.928  11.241  26.197  0.00  0.00     0.187 C 
HETATM   31  C   UNL     1      -1.037  12.492  26.235  0.00  0.00     0.149 C 
ENDBRANCH  23  26
ENDBRANCH   3  20
TORSDOF 6
ENDMDL
MODEL 3
REMARK VINA RESULT:    -7.606      2.049      2.768
REMARK INTER + INTRA:         -10.870
REMARK INTER:                  -9.953
REMARK INTRA:                  -0.917
REMARK UNBOUND:                -0.818
REMARK  6 active torsions:
REMARK  status: ('A' for Active; 'I' for Inactive)
REMARK    1  A    between atoms: C_2  and  C_3 
REMARK    2  A    between atoms: C_3  and  C_4 
REMARK    3  A    between atoms: C_11  and  C_15 
REMARK    4  A    between atoms: C_12  and  O_14 
REMARK       I    between atoms: C_15  and  N_17 
REMARK    5  A    between atoms: N_17  and  C_19 
REMARK    6  A    between atoms: C_22  and  N_25 
ROOT
HETATM    1  C   UNL     1       6.139  13.742  22.895  0.00  0.00     0.260 C 
HETATM    2  O   UNL     1       5.664  13.062  21.978  0.00  0.00    -0.267 OA
HETATM    3  N   UNL     1       5.360  14.237  23.965  0.00  0.00    -0.318 N 
HETATM    4  C   UNL     1       5.838  15.172  24.985  0.00  0.00     0.159 C 
ENDROOT
BRANCH   1   5
HETATM    5  C   UNL     1       7.608  13.986  22.754  0.00  0.00     0.066 A 
HETATM    6  C   UNL     1       8.431  12.884  23.097  0.00  0.00     0.035 A 
HETATM    7  C   UNL     1       9.829  12.942  22.908  0.00  0.00     0.019 A 
HETATM    8  C   UNL     1      10.930  12.049  23.013  0.00  0.00     0.067 A 
HETATM    9  C   UNL     1      10.378  14.133  22.450  0.00  0.00     0.065 A 
HETATM   10  N   UNL     1      12.088  12.652  22.693  0.00  0.00    -0.178 NA
HETATM   11  N   UNL     1      11.727  13.906  22.385  0.00  0.00    -0.277 N 
HETATM   12  H   UNL     1      12.450  14.555  22.096  0.00  0.00     0.189 HD
HETATM   13  C   UNL     1       9.611  15.245  22.105  0.00  0.00     0.069 A 
HETATM   14  C   UNL     1       8.215  15.116  22.194  0.00  0.00     0.083 A 
BRANCH   8  15
HETATM   15  C   UNL     1      10.925  10.593  23.349  0.00  0.00     0.062 C 
BRANCH  15  16
HETATM   16  C   UNL     1      10.326  10.306  24.727  0.00  0.00     0.002 C 
HETATM   17  C   UNL     1       9.037   9.504  24.624  0.00  0.00     0.005 C 
ENDBRANCH  15  16
ENDBRANCH   8  15
BRANCH  14  18
HETATM   18  O   UNL     1       7.521  16.134  21.597  0.00  0.00    -0.360 OA
HETATM   19  H   UNL     1       7.613  16.918  22.168  0.00  0.00     0.217 HD
ENDBRANCH  14  18
ENDBRANCH   1   5
BRANCH   3  20
HETATM   20  C   UNL     1       3.977  13.831  24.084  0.00  0.00     0.037 A 
HETATM   21  C   UNL     1       3.630  12.540  24.500  0.00  0.00     0.032 A 
HETATM   22  C   UNL     1       2.289  12.136  24.604  0.00  0.00     0.031 A 
HETATM   23  C   UNL     1       1.235  12.996  24.292  0.00  0.00     0.030 A 
HETATM   24  C   UNL     1       1.591  14.299  23.912  0.00  0.00     0.031 A 
HETATM   25  C   UNL     1       2.929  14.717  23.822  0.00  0.00     0.032 A 
BRANCH  23  26
HETATM   26  N   UNL     1      -0.090  12.633  24.405  0.00  0.00    -0.377 N 
HETATM   27  C   UNL     1      -1.022  12.635  23.268  0.00  0.00     0.149 C 
HETATM   28  C   UNL     1      -1.989  11.447  23.437  0.00  0.00     0.187 C 
HETATM   29  O   UNL     1      -2.679  11.485  24.701  0.00  0.00    -0.388 OA
HETATM   30  C   UNL     1      -1.737  11.481  25.789  0.00  0.00     0.187 C 
HETATM   31  C   UNL     1      -0.782  12.681  25.706  0.00  0.00     0.149 C 
ENDBRANCH  23  26
ENDBRANCH   3  20
TORSDOF 6
ENDMDL
MODEL 4
REMARK VINA RESULT:    -7.604      2.161      2.882
REMARK INTER + INTRA:         -10.867
REMARK INTER:                 -10.513
REMARK INTRA:                  -0.354
REMARK UNBOUND:                -0.818
REMARK  6 active torsions:
REMARK  status: ('A' for Active; 'I' for Inactive)
REMARK    1  A    between atoms: C_2  and  C_3 
REMARK    2  A    between atoms: C_3  and  C_4 
REMARK    3  A    between atoms: C_11  and  C_15 
REMARK    4  A    between atoms: C_12  and  O_14 
REMARK       I    between atoms: C_15  and  N_17 
REMARK    5  A    between atoms: N_17  and  C_19 
REMARK    6  A    between atoms: C_22  and  N_25 
ROOT
HETATM    1  C   UNL     1       7.413  14.760  23.923  0.00  0.00     0.260 C 
HETATM    2  O   UNL     1       6.915  15.216  24.958  0.00  0.00    -0.267 OA
HETATM    3  N   UNL     1       6.674  13.999  22.989  0.00  0.00    -0.318 N 
HETATM    4  C   UNL     1       7.248  13.307  21.833  0.00  0.00     0.159 C 
ENDROOT
BRANCH   1   5
HETATM    5  C   UNL     1       8.863  15.090  23.764  0.00  0.00     0.066 A 
HETATM    6  C   UNL     1       9.726  14.444  24.684  0.00  0.00     0.035 A 
HETATM    7  C   UNL     1      11.127  14.581  24.578  0.00  0.00     0.019 A 
HETATM    8  C   UNL     1      12.277  14.027  25.203  0.00  0.00     0.067 A 
HETATM    9  C   UNL     1      11.628  15.428  23.597  0.00  0.00     0.065 A 
HETATM   10  N   UNL     1      13.411  14.527  24.685  0.00  0.00    -0.178 NA
HETATM   11  N   UNL     1      12.989  15.382  23.743  0.00  0.00    -0.277 N 
HETATM   12  H   UNL     1      13.686  15.878  23.200  0.00  0.00     0.189 HD
HETATM   13  C   UNL     1      10.820  16.089  22.672  0.00  0.00     0.069 A 
HETATM   14  C   UNL     1       9.439  15.839  22.731  0.00  0.00     0.083 A 
BRANCH   8  15
HETATM   15  C   UNL     1      12.350  12.967  26.254  0.00  0.00     0.062 C 
BRANCH  15  16
HETATM   16  C   UNL     1      11.965  13.483  27.642  0.00  0.00     0.002 C 
HETATM   17  C   UNL     1      13.024  14.414  28.211  0.00  0.00     0.005 C 
ENDBRANCH  15  16
ENDBRANCH   8  15
BRANCH  14  18
HETATM   18  O   UNL     1       8.742  16.300  21.647  0.00  0.00    -0.360 OA
HETATM   19  H   UNL     1       8.637  15.551  21.033  0.00  0.00     0.217 HD
ENDBRANCH  14  18
ENDBRANCH   1   5
BRANCH   3  20
HETATM   20  C   UNL     1       5.246  13.852  23.163  0.00  0.00     0.037 A 
HETATM   21  C   UNL     1       4.431  14.950  23.458  0.00  0.00     0.032 A 
HETATM   22  C   UNL     1       3.045  14.810  23.642  0.00  0.00     0.031 A 
HETATM   23  C   UNL     1       2.412  13.570  23.549  0.00  0.00     0.030 A 
HETATM   24  C   UNL     1       3.231  12.480  23.217  0.00  0.00     0.031 A 
HETATM   25  C   UNL     1       4.615  12.614  23.013  0.00  0.00     0.032 A 
BRANCH  23  26
HETATM   26  N   UNL     1       1.052  13.407  23.704  0.00  0.00    -0.377 N 
HETATM   27  C   UNL     1       0.128  13.259  22.570  0.00  0.00     0.149 C 
HETATM   28  C   UNL     1      -0.980  12.270  22.980  0.00  0.00     0.187 C 
HETATM   29  O   UNL     1      -1.661  12.684  24.180  0.00  0.00    -0.388 OA
HETATM   30  C   UNL     1      -0.727  12.818  25.267  0.00  0.00     0.187 C 
HETATM   31  C   UNL     1       0.371  13.840  24.937  0.00  0.00     0.149 C 
ENDBRANCH  23  26
ENDBRANCH   3  20
TORSDOF 6
ENDMDL
MODEL 5
REMARK VINA RESULT:    -7.567      2.835     10.601
REMARK INTER + INTRA:         -10.818
REMARK INTER:                 -10.000
REMARK INTRA:                  -0.818
REMARK UNBOUND:                -0.818
REMARK  6 active torsions:
REMARK  status: ('A' for Active; 'I' for Inactive)
REMARK    1  A    between atoms: C_2  and  C_3 
REMARK    2  A    between atoms: C_3  and  C_4 
REMARK    3  A    between atoms: C_11  and  C_15 
REMARK    4  A    between atoms: C_12  and  O_14 
REMARK       I    between atoms: C_15  and  N_17 
REMARK    5  A    between atoms: N_17  and  C_19 
REMARK    6  A    between atoms: C_22  and  N_25 
ROOT
HETATM    1  C   UNL     1       2.810  12.367  23.821  0.00  0.00     0.260 C 
HETATM    2  O   UNL     1       3.426  11.795  22.914  0.00  0.00    -0.267 OA
HETATM    3  N   UNL     1       3.398  13.357  24.640  0.00  0.00    -0.318 N 
HETATM    4  C   UNL     1       2.768  13.949  25.821  0.00  0.00     0.159 C 
ENDROOT
BRANCH   1   5
HETATM    5  C   UNL     1       1.395  11.904  23.963  0.00  0.00     0.066 A 
HETATM    6  C   UNL     1       0.466  12.560  23.117  0.00  0.00     0.035 A 
HETATM    7  C   UNL     1      -0.884  12.147  23.070  0.00  0.00     0.019 A 
HETATM    8  C   UNL     1      -2.040  12.457  22.304  0.00  0.00     0.067 A 
HETATM    9  C   UNL     1      -1.288  11.135  23.933  0.00  0.00     0.065 A 
HETATM   10  N   UNL     1      -3.100  11.728  22.692  0.00  0.00    -0.178 NA
HETATM   11  N   UNL     1      -2.624  10.965  23.686  0.00  0.00    -0.277 N 
HETATM   12  H   UNL     1      -3.256  10.311  24.133  0.00  0.00     0.189 HD
HETATM   13  C   UNL     1      -0.413  10.465  24.786  0.00  0.00     0.069 A 
HETATM   14  C   UNL     1       0.945  10.819  24.724  0.00  0.00     0.083 A 
BRANCH   8  15
HETATM   15  C   UNL     1      -2.172  13.391  21.145  0.00  0.00     0.062 C 
BRANCH  15  16
HETATM   16  C   UNL     1      -3.623  13.788  20.868  0.00  0.00     0.002 C 
HETATM   17  C   UNL     1      -3.735  14.700  19.655  0.00  0.00     0.005 C 
ENDBRANCH  15  16
ENDBRANCH   8  15
BRANCH  14  18
HETATM   18  O   UNL     1       1.778   9.955  25.382  0.00  0.00    -0.360 OA
HETATM   19  H   UNL     1       1.404   9.061  25.280  0.00  0.00     0.217 HD
ENDBRANCH  14  18
ENDBRANCH   1   5
BRANCH   3  20
HETATM   20  C   UNL     1       4.729  13.834  24.334  0.00  0.00     0.037 A 
HETATM   21  C   UNL     1       4.938  14.883  23.432  0.00  0.00     0.032 A 
HETATM   22  C   UNL     1       6.229  15.340  23.121  0.00  0.00     0.031 A 
HETATM   23  C   UNL     1       7.369  14.768  23.688  0.00  0.00     0.030 A 
HETATM   24  C   UNL     1       7.148  13.741  24.618  0.00  0.00     0.031 A 
HETATM   25  C   UNL     1       5.859  13.290  24.949  0.00  0.00     0.032 A 
BRANCH  23  26
HETATM   26  N   UNL     1       8.646  15.210  23.416  0.00  0.00    -0.377 N 
HETATM   27  C   UNL     1       9.603  15.590  24.466  0.00  0.00     0.149 C 
HETATM   28  C   UNL     1      11.011  15.160  24.011  0.00  0.00     0.187 C 
HETATM   29  O   UNL     1      11.362  15.722  22.732  0.00  0.00    -0.388 OA
HETATM   30  C   UNL     1      10.407  15.329  21.731  0.00  0.00     0.187 C 
HETATM   31  C   UNL     1       8.988  15.786  22.103  0.00  0.00     0.149 C 
ENDBRANCH  23  26
ENDBRANCH   3  20
TORSDOF 6
ENDMDL
MODEL 6
REMARK VINA RESULT:    -7.524      1.674      1.993
REMARK INTER + INTRA:         -10.761
REMARK INTER:                  -9.774
REMARK INTRA:                  -0.987
REMARK UNBOUND:                -0.818
REMARK  6 active torsions:
REMARK  status: ('A' for Active; 'I' for Inactive)
REMARK    1  A    between atoms: C_2  and  C_3 
REMARK    2  A    between atoms: C_3  and  C_4 
REMARK    3  A    between atoms: C_11  and  C_15 
REMARK    4  A    between atoms: C_12  and  O_14 
REMARK       I    between atoms: C_15  and  N_17 
REMARK    5  A    between atoms: N_17  and  C_19 
REMARK    6  A    between atoms: C_22  and  N_25 
ROOT
HETATM    1  C   UNL     1       8.002  14.519  22.465  0.00  0.00     0.260 C 
HETATM    2  O   UNL     1       7.357  14.457  21.412  0.00  0.00    -0.267 OA
HETATM    3  N   UNL     1       7.388  14.557  23.738  0.00  0.00    -0.318 N 
HETATM    4  C   UNL     1       8.093  14.787  25.000  0.00  0.00     0.159 C 
ENDROOT
BRANCH   1   5
HETATM    5  C   UNL     1       9.482  14.551  22.256  0.00  0.00     0.066 A 
HETATM    6  C   UNL     1      10.143  13.317  22.476  0.00  0.00     0.035 A 
HETATM    7  C   UNL     1      11.522  13.179  22.209  0.00  0.00     0.019 A 
HETATM    8  C   UNL     1      12.478  12.127  22.190  0.00  0.00     0.067 A 
HETATM    9  C   UNL     1      12.225  14.306  21.801  0.00  0.00     0.065 A 
HETATM   10  N   UNL     1      13.697  12.573  21.845  0.00  0.00    -0.178 NA
HETATM   11  N   UNL     1      13.519  13.886  21.643  0.00  0.00    -0.277 N 
HETATM   12  H   UNL     1      14.317  14.440  21.356  0.00  0.00     0.189 HD
HETATM   13  C   UNL     1      11.621  15.543  21.576  0.00  0.00     0.069 A 
HETATM   14  C   UNL     1      10.227  15.617  21.738  0.00  0.00     0.083 A 
BRANCH   8  15
HETATM   15  C   UNL     1      12.266  10.667  22.428  0.00  0.00     0.062 C 
BRANCH  15  16
HETATM   16  C   UNL     1      12.074  10.331  23.909  0.00  0.00     0.002 C 
HETATM   17  C   UNL     1      10.601  10.260  24.283  0.00  0.00     0.005 C 
ENDBRANCH  15  16
ENDBRANCH   8  15
BRANCH  14  18
HETATM   18  O   UNL     1       9.670  16.769  21.251  0.00  0.00    -0.360 OA
HETATM   19  H   UNL     1       9.446  16.607  20.316  0.00  0.00     0.217 HD
ENDBRANCH  14  18
ENDBRANCH   1   5
BRANCH   3  20
HETATM   20  C   UNL     1       5.956  14.381  23.841  0.00  0.00     0.037 A 
HETATM   21  C   UNL     1       5.082  15.472  23.784  0.00  0.00     0.032 A 
HETATM   22  C   UNL     1       3.691  15.307  23.898  0.00  0.00     0.031 A 
HETATM   23  C   UNL     1       3.111  14.051  24.083  0.00  0.00     0.030 A 
HETATM   24  C   UNL     1       3.993  12.959  24.102  0.00  0.00     0.031 A 
HETATM   25  C   UNL     1       5.383  13.113  23.970  0.00  0.00     0.032 A 
BRANCH  23  26
HETATM   26  N   UNL     1       1.750  13.858  24.177  0.00  0.00    -0.377 N 
HETATM   27  C   UNL     1       0.844  13.962  23.023  0.00  0.00     0.149 C 
HETATM   28  C   UNL     1      -0.267  12.907  23.189  0.00  0.00     0.187 C 
HETATM   29  O   UNL     1      -0.968  13.049  24.439  0.00  0.00    -0.388 OA
HETATM   30  C   UNL     1      -0.052  12.942  25.544  0.00  0.00     0.187 C 
HETATM   31  C   UNL     1       1.048  14.011  25.464  0.00  0.00     0.149 C 
ENDBRANCH  23  26
ENDBRANCH   3  20
TORSDOF 6
ENDMDL
MODEL 7
REMARK VINA RESULT:    -7.522      2.313      3.139
REMARK INTER + INTRA:         -10.759
REMARK INTER:                 -10.039
REMARK INTRA:                  -0.720
REMARK UNBOUND:                -0.818
REMARK  6 active torsions:
REMARK  status: ('A' for Active; 'I' for Inactive)
REMARK    1  A    between atoms: C_2  and  C_3 
REMARK    2  A    between atoms: C_3  and  C_4 
REMARK    3  A    between atoms: C_11  and  C_15 
REMARK    4  A    between atoms: C_12  and  O_14 
REMARK       I    between atoms: C_15  and  N_17 
REMARK    5  A    between atoms: N_17  and  C_19 
REMARK    6  A    between atoms: C_22  and  N_25 
ROOT
HETATM    1  C   UNL     1       6.155  13.122  24.068  0.00  0.00     0.260 C 
HETATM    2  O   UNL     1       6.017  12.354  23.110  0.00  0.00    -0.267 OA
HETATM    3  N   UNL     1       5.061  13.704  24.748  0.00  0.00    -0.318 N 
HETATM    4  C   UNL     1       5.170  14.736  25.780  0.00  0.00     0.159 C 
ENDROOT
BRANCH   1   5
HETATM    5  C   UNL     1       7.585  13.373  24.429  0.00  0.00     0.066 A 
HETATM    6  C   UNL     1       8.267  14.274  23.573  0.00  0.00     0.035 A 
HETATM    7  C   UNL     1       9.587  14.682  23.859  0.00  0.00     0.019 A 
HETATM    8  C   UNL     1      10.524  15.615  23.337  0.00  0.00     0.067 A 
HETATM    9  C   UNL     1      10.222  14.116  24.958  0.00  0.00     0.065 A 
HETATM   10  N   UNL     1      11.676  15.598  24.028  0.00  0.00    -0.178 NA
HETATM   11  N   UNL     1      11.474  14.673  24.976  0.00  0.00    -0.277 N 
HETATM   12  H   UNL     1      12.220  14.493  25.638  0.00  0.00     0.189 HD
HETATM   13  C   UNL     1       9.596  13.223  25.826  0.00  0.00     0.069 A 
HETATM   14  C   UNL     1       8.244  12.927  25.580  0.00  0.00     0.083 A 
BRANCH   8  15
HETATM   15  C   UNL     1      10.346  16.595  22.223  0.00  0.00     0.062 C 
BRANCH  15  16
HETATM   16  C   UNL     1      10.478  15.950  20.842  0.00  0.00     0.002 C 
HETATM   17  C   UNL     1      11.625  14.952  20.795  0.00  0.00     0.005 C 
ENDBRANCH  15  16
ENDBRANCH   8  15
BRANCH  14  18
HETATM   18  O   UNL     1       7.623  12.264  26.604  0.00  0.00    -0.360 OA
HETATM   19  H   UNL     1       8.319  11.830  27.130  0.00  0.00     0.217 HD
ENDBRANCH  14  18
ENDBRANCH   1   5
BRANCH   3  20
HETATM   20  C   UNL     1       3.716  13.291  24.413  0.00  0.00     0.037 A 
HETATM   21  C   UNL     1       2.843  14.141  23.724  0.00  0.00     0.032 A 
HETATM   22  C   UNL     1       1.531  13.750  23.409  0.00  0.00     0.031 A 
HETATM   23  C   UNL     1       1.029  12.499  23.772  0.00  0.00     0.030 A 
HETATM   24  C   UNL     1       1.922  11.640  24.429  0.00  0.00     0.031 A 
HETATM   25  C   UNL     1       3.242  12.016  24.733  0.00  0.00     0.032 A 
BRANCH  23  26
HETATM   26  N   UNL     1      -0.247  12.082  23.457  0.00  0.00    -0.377 N 
HETATM   27  C   UNL     1      -0.815  10.811  23.932  0.00  0.00     0.149 C 
HETATM   28  C   UNL     1      -2.313  11.030  24.214  0.00  0.00     0.187 C 
HETATM   29  O   UNL     1      -3.013  11.537  23.062  0.00  0.00    -0.388 OA
HETATM   30  C   UNL     1      -2.433  12.779  22.626  0.00  0.00     0.187 C 
HETATM   31  C   UNL     1      -0.947  12.608  22.272  0.00  0.00     0.149 C 
ENDBRANCH  23  26
ENDBRANCH   3  20
TORSDOF 6
ENDMDL
MODEL 8
REMARK VINA RESULT:    -7.416      1.494      1.987
REMARK INTER + INTRA:         -10.619
REMARK INTER:                  -9.582
REMARK INTRA:                  -1.037
REMARK UNBOUND:                -0.818
REMARK  6 active torsions:
REMARK  status: ('A' for Active; 'I' for Inactive)
REMARK    1  A    between atoms: C_2  and  C_3 
REMARK    2  A    between atoms: C_3  and  C_4 
REMARK    3  A    between atoms: C_11  and  C_15 
REMARK    4  A    between atoms: C_12  and  O_14 
REMARK       I    between atoms: C_15  and  N_17 
REMARK    5  A    between atoms: N_17  and  C_19 
REMARK    6  A    between atoms: C_22  and  N_25 
ROOT
HETATM    1  C   UNL     1       8.141  14.076  25.060  0.00  0.00     0.260 C 
HETATM    2  O   UNL     1       7.611  15.156  25.344  0.00  0.00    -0.267 OA
HETATM    3  N   UNL     1       7.396  12.913  24.762  0.00  0.00    -0.318 N 
HETATM    4  C   UNL     1       7.968  11.578  24.575  0.00  0.00     0.159 C 
ENDROOT
BRANCH   1   5
HETATM    5  C   UNL     1       9.636  14.126  25.070  0.00  0.00     0.066 A 
HETATM    6  C   UNL     1      10.243  14.060  23.790  0.00  0.00     0.035 A 
HETATM    7  C   UNL     1      11.640  14.205  23.646  0.00  0.00     0.019 A 
HETATM    8  C   UNL     1      12.569  14.311  22.576  0.00  0.00     0.067 A 
HETATM    9  C   UNL     1      12.405  14.336  24.798  0.00  0.00     0.065 A 
HETATM   10  N   UNL     1      13.828  14.449  23.026  0.00  0.00    -0.178 NA
HETATM   11  N   UNL     1      13.699  14.434  24.360  0.00  0.00    -0.277 N 
HETATM   12  H   UNL     1      14.536  14.537  24.923  0.00  0.00     0.189 HD
HETATM   13  C   UNL     1      11.856  14.400  26.078  0.00  0.00     0.069 A 
HETATM   14  C   UNL     1      10.454  14.370  26.178  0.00  0.00     0.083 A 
BRANCH   8  15
HETATM   15  C   UNL     1      12.302  14.356  21.106  0.00  0.00     0.062 C 
BRANCH  15  16
HETATM   16  C   UNL     1      12.111  12.965  20.497  0.00  0.00     0.002 C 
HETATM   17  C   UNL     1      10.662  12.715  20.108  0.00  0.00     0.005 C 
ENDBRANCH  15  16
ENDBRANCH   8  15
BRANCH  14  18
HETATM   18  O   UNL     1       9.977  14.701  27.418  0.00  0.00    -0.360 OA
HETATM   19  H   UNL     1      10.215  15.633  27.578  0.00  0.00     0.217 HD
ENDBRANCH  14  18
ENDBRANCH   1   5
BRANCH   3  20
HETATM   20  C   UNL     1       5.957  13.001  24.643  0.00  0.00     0.037 A 
HETATM   21  C   UNL     1       5.345  13.329  23.429  0.00  0.00     0.032 A 
HETATM   22  C   UNL     1       3.949  13.430  23.311  0.00  0.00     0.031 A 
HETATM   23  C   UNL     1       3.102  13.217  24.400  0.00  0.00     0.030 A 
HETATM   24  C   UNL     1       3.722  12.853  25.605  0.00  0.00     0.031 A 
HETATM   25  C   UNL     1       5.117  12.732  25.726  0.00  0.00     0.032 A 
BRANCH  23  26
HETATM   26  N   UNL     1       1.729  13.289  24.309  0.00  0.00    -0.377 N 
HETATM   27  C   UNL     1       1.015  13.402  23.028  0.00  0.00     0.149 C 
HETATM   28  C   UNL     1      -0.295  12.598  23.136  0.00  0.00     0.187 C 
HETATM   29  O   UNL     1      -1.106  13.029  24.245  0.00  0.00    -0.388 OA
HETATM   30  C   UNL     1      -0.378  12.904  25.480  0.00  0.00     0.187 C 
HETATM   31  C   UNL     1       0.913  13.736  25.453  0.00  0.00     0.149 C 
ENDBRANCH  23  26
ENDBRANCH   3  20
TORSDOF 6
ENDMDL
MODEL 9
REMARK VINA RESULT:    -7.322      2.246      3.321
REMARK INTER + INTRA:         -10.495
REMARK INTER:                  -9.544
REMARK INTRA:                  -0.950
REMARK UNBOUND:                -0.818
REMARK  6 active torsions:
REMARK  status: ('A' for Active; 'I' for Inactive)
REMARK    1  A    between atoms: C_2  and  C_3 
REMARK    2  A    between atoms: C_3  and  C_4 
REMARK    3  A    between atoms: C_11  and  C_15 
REMARK    4  A    between atoms: C_12  and  O_14 
REMARK       I    between atoms: C_15  and  N_17 
REMARK    5  A    between atoms: N_17  and  C_19 
REMARK    6  A    between atoms: C_22  and  N_25 
ROOT
HETATM    1  C   UNL     1       6.417  12.257  22.556  0.00  0.00     0.260 C 
HETATM    2  O   UNL     1       5.769  11.906  21.563  0.00  0.00    -0.267 OA
HETATM    3  N   UNL     1       5.806  12.697  23.752  0.00  0.00    -0.318 N 
HETATM    4  C   UNL     1       6.520  13.269  24.894  0.00  0.00     0.159 C 
ENDROOT
BRANCH   1   5
HETATM    5  C   UNL     1       7.897  12.171  22.361  0.00  0.00     0.066 A 
HETATM    6  C   UNL     1       8.496  13.336  21.820  0.00  0.00     0.035 A 
HETATM    7  C   UNL     1       9.898  13.431  21.686  0.00  0.00     0.019 A 
HETATM    8  C   UNL     1      10.843  14.426  21.317  0.00  0.00     0.067 A 
HETATM    9  C   UNL     1      10.663  12.322  22.027  0.00  0.00     0.065 A 
HETATM   10  N   UNL     1      12.101  13.960  21.374  0.00  0.00    -0.178 NA
HETATM   11  N   UNL     1      11.959  12.690  21.778  0.00  0.00    -0.277 N 
HETATM   12  H   UNL     1      12.795  12.131  21.906  0.00  0.00     0.189 HD
HETATM   13  C   UNL     1      10.120  11.153  22.557  0.00  0.00     0.069 A 
HETATM   14  C   UNL     1       8.734  11.134  22.788  0.00  0.00     0.083 A 
BRANCH   8  15
HETATM   15  C   UNL     1      10.602  15.859  20.965  0.00  0.00     0.062 C 
BRANCH  15  16
HETATM   16  C   UNL     1       9.959  16.648  22.108  0.00  0.00     0.002 C 
HETATM   17  C   UNL     1      10.781  16.560  23.385  0.00  0.00     0.005 C 
ENDBRANCH  15  16
ENDBRANCH   8  15
BRANCH  14  18
HETATM   18  O   UNL     1       8.309  10.076  23.545  0.00  0.00    -0.360 OA
HETATM   19  H   UNL     1       8.053  10.431  24.416  0.00  0.00     0.217 HD
ENDBRANCH  14  18
ENDBRANCH   1   5
BRANCH   3  20
HETATM   20  C   UNL     1       4.369  12.613  23.889  0.00  0.00     0.037 A 
HETATM   21  C   UNL     1       3.756  11.498  24.472  0.00  0.00     0.032 A 
HETATM   22  C   UNL     1       2.360  11.405  24.595  0.00  0.00     0.031 A 
HETATM   23  C   UNL     1       1.512  12.414  24.135  0.00  0.00     0.030 A 
HETATM   24  C   UNL     1       2.136  13.544  23.585  0.00  0.00     0.031 A 
HETATM   25  C   UNL     1       3.533  13.653  23.475  0.00  0.00     0.032 A 
BRANCH  23  26
HETATM   26  N   UNL     1       0.141  12.358  24.261  0.00  0.00    -0.377 N 
HETATM   27  C   UNL     1      -0.774  12.424  23.111  0.00  0.00     0.149 C 
HETATM   28  C   UNL     1      -1.972  11.499  23.398  0.00  0.00     0.187 C 
HETATM   29  O   UNL     1      -2.633  11.834  24.632  0.00  0.00    -0.388 OA
HETATM   30  C   UNL     1      -1.711  11.758  25.734  0.00  0.00     0.187 C 
HETATM   31  C   UNL     1      -0.520  12.708  25.531  0.00  0.00     0.149 C 
ENDBRANCH  23  26
ENDBRANCH   3  20
TORSDOF 6
ENDMDL
