REMARK  6 active torsions:
REMARK  status: ('A' for Active; 'I' for Inactive)
REMARK    1  A    between atoms: C_2  and  C_3 
REMARK    2  A    between atoms: C_3  and  C_4 
REMARK    3  A    between atoms: C_11  and  C_15 
REMARK    4  A    between atoms: C_12  and  O_14 
REMARK       I    between atoms: C_15  and  N_17 
REMARK    5  A    between atoms: N_17  and  C_19 
REMARK    6  A    between atoms: C_22  and  N_25 
ROOT
HETATM    1  C   UNL     1       6.150  -4.677  -1.273  0.00  0.00     0.260 C 
HETATM    2  O   UNL     1       5.056  -4.874  -0.732  0.00  0.00    -0.267 OA
HETATM    3  N   UNL     1       7.064  -5.718  -1.553  0.00  0.00    -0.318 N 
HETATM    4  C   UNL     1       8.429  -5.523  -2.045  0.00  0.00     0.159 C 
ENDROOT
BRANCH   1   5
HETATM    5  C   UNL     1       6.405  -3.239  -1.594  0.00  0.00     0.066 A 
HETATM    6  C   UNL     1       5.273  -2.521  -2.055  0.00  0.00     0.035 A 
HETATM    7  C   UNL     1       5.347  -1.131  -2.291  0.00  0.00     0.019 A 
HETATM    8  C   UNL     1       4.447  -0.084  -2.628  0.00  0.00     0.067 A 
HETATM    9  C   UNL     1       6.578  -0.506  -2.133  0.00  0.00     0.065 A 
HETATM   10  N   UNL     1       5.077   1.099  -2.722  0.00  0.00    -0.178 NA
HETATM   11  N   UNL     1       6.356   0.809  -2.445  0.00  0.00    -0.277 N 
HETATM   12  H   UNL     1       7.030   1.566  -2.445  0.00  0.00     0.189 HD
HETATM   13  C   UNL     1       7.720  -1.170  -1.687  0.00  0.00     0.069 A 
HETATM   14  C   UNL     1       7.585  -2.527  -1.349  0.00  0.00     0.083 A 
BRANCH   8  15
HETATM   15  C   UNL     1       2.964  -0.146  -2.805  0.00  0.00     0.062 C 
BRANCH  15  16
HETATM   16  C   UNL     1       2.513   0.334  -4.186  0.00  0.00     0.002 C 
HETATM   17  C   UNL     1       1.000   0.280  -4.334  0.00  0.00     0.005 C 
ENDBRANCH  15  16
ENDBRANCH   8  15
BRANCH  14  18
HETATM   18  O   UNL     1       8.659  -3.044  -0.676  0.00  0.00    -0.360 OA
HETATM   19  H   UNL     1       8.307  -3.588   0.052  0.00  0.00     0.217 HD
ENDBRANCH  14  18
ENDBRANCH   1   5
BRANCH   3  20
HETATM   20  C   UNL     1       6.667  -7.091  -1.331  0.00  0.00     0.037 A 
HETATM   21  C   UNL     1       5.356  -7.518  -1.568  0.00  0.00     0.032 A 
HETATM   22  C   UNL     1       4.962  -8.847  -1.341  0.00  0.00     0.031 A 
HETATM   23  C   UNL     1       5.854  -9.807  -0.860  0.00  0.00     0.030 A 
HETATM   24  C   UNL     1       7.175  -9.379  -0.660  0.00  0.00     0.031 A 
HETATM   25  C   UNL     1       7.582  -8.056  -0.902  0.00  0.00     0.032 A 
BRANCH  23  26
HETATM   26  N   UNL     1       5.500 -11.122  -0.648  0.00  0.00    -0.377 N 
HETATM   27  C   UNL     1       4.329 -11.749  -1.279  0.00  0.00     0.149 C 
HETATM   28  C   UNL     1       4.684 -13.213  -1.602  0.00  0.00     0.187 C 
HETATM   29  O   UNL     1       5.119 -13.936  -0.435  0.00  0.00    -0.388 OA
HETATM   30  C   UNL     1       6.265 -13.296   0.155  0.00  0.00     0.187 C 
HETATM   31  C   UNL     1       5.951 -11.846   0.554  0.00  0.00     0.149 C 
ENDBRANCH  23  26
ENDBRANCH   3  20
TORSDOF 6
