MODEL 1
REMARK VINA RESULT:   -10.337      0.000      0.000
REMARK INTER + INTRA:         -13.610
REMARK INTER:                 -11.732
REMARK INTRA:                  -1.878
REMARK UNBOUND:                 0.050
REMARK  6 active torsions:
REMARK  status: ('A' for Active; 'I' for Inactive)
REMARK    1  A    between atoms: C_6  and  C_7 
REMARK    2  A    between atoms: C_7  and  N_8 
REMARK       I    between atoms: N_8  and  C_10 
REMARK    3  A    between atoms: C_10  and  C_12 
REMARK    4  A    between atoms: C_14  and  O_15 
REMARK    5  A    between atoms: C_22  and  C_23 
REMARK    6  A    between atoms: C_23  and  C_24 
ROOT
HETATM    1  C   UNL     1      -3.502  14.260  22.055  0.00  0.00     0.158 A 
HETATM    2  C   UNL     1      -2.224  15.092  22.213  0.00  0.00     0.010 A 
HETATM    3  C   UNL     1      -4.177  14.486  20.692  0.00  0.00     0.062 A 
HETATM    4  C   UNL     1      -3.782  15.386  19.778  0.00  0.00     0.065 A 
HETATM    5  C   UNL     1      -2.615  16.196  20.092  0.00  0.00     0.064 A 
HETATM    6  C   UNL     1      -1.858  16.007  21.311  0.00  0.00     0.016 A 
HETATM    7  N   UNL     1      -2.084  17.148  19.415  0.00  0.00    -0.277 N 
HETATM    8  H   UNL     1      -2.416  17.517  18.523  0.00  0.00     0.189 HD
HETATM    9  N   UNL     1      -0.908  17.737  20.043  0.00  0.00    -0.178 NA
HETATM   10  C   UNL     1      -0.815  17.036  21.154  0.00  0.00     0.071 A 
ENDROOT
BRANCH   1  11
HETATM   11  C   UNL     1      -3.205  12.745  22.289  0.00  0.00     0.233 C 
HETATM   12  N   UNL     1      -3.354  12.229  23.580  0.00  0.00    -0.351 N 
HETATM   13  C   UNL     1      -3.548  13.051  24.769  0.00  0.00     0.153 C 
HETATM   14  O   UNL     1      -2.867  12.039  21.337  0.00  0.00    -0.272 OA
BRANCH  12  15
HETATM   15  C   UNL     1      -3.113  10.794  23.809  0.00  0.00     0.164 C 
BRANCH  15  16
HETATM   16  C   UNL     1      -1.737  10.373  24.283  0.00  0.00    -0.040 A 
HETATM   17  C   UNL     1      -1.486  10.128  25.645  0.00  0.00     0.009 A 
HETATM   18  C   UNL     1      -0.173  10.020  26.125  0.00  0.00     0.001 A 
HETATM   19  C   UNL     1       0.906  10.132  25.251  0.00  0.00     0.000 A 
HETATM   20  C   UNL     1       0.672  10.305  23.889  0.00  0.00     0.001 A 
HETATM   21  C   UNL     1      -0.639  10.415  23.407  0.00  0.00     0.009 A 
ENDBRANCH  15  16
ENDBRANCH  12  15
ENDBRANCH   1  11
BRANCH   3  22
HETATM   22  O   UNL     1      -5.317  13.751  20.403  0.00  0.00    -0.364 OA
HETATM   23  H   UNL     1      -6.066  14.040  20.958  0.00  0.00     0.217 HD
ENDBRANCH   3  22
BRANCH  10  24
HETATM   24  C   UNL     1       0.232  17.333  22.206  0.00  0.00     0.100 C 
BRANCH  24  25
HETATM   25  C   UNL     1       1.307  16.276  22.205  0.00  0.00    -0.052 A 
HETATM   26  C   UNL     1       2.086  16.062  21.062  0.00  0.00     0.007 A 
HETATM   27  C   UNL     1       3.025  15.031  21.029  0.00  0.00     0.001 A 
HETATM   28  C   UNL     1       3.193  14.200  22.136  0.00  0.00     0.007 A 
HETATM   29  C   UNL     1       2.433  14.401  23.293  0.00  0.00    -0.061 A 
HETATM   30  C   UNL     1       1.501  15.450  23.324  0.00  0.00     0.014 A 
HETATM   31  C   UNL     1       2.614  13.512  24.489  0.00  0.00     0.048 C 
ENDBRANCH  24  25
ENDBRANCH  10  24
TORSDOF 6
ENDMDL
MODEL 2
REMARK VINA RESULT:   -10.283      0.520      1.241
REMARK INTER + INTRA:         -13.539
REMARK INTER:                 -11.870
REMARK INTRA:                  -1.669
REMARK UNBOUND:                 0.050
REMARK  6 active torsions:
REMARK  status: ('A' for Active; 'I' for Inactive)
REMARK    1  A    between atoms: C_6  and  C_7 
REMARK    2  A    between atoms: C_7  and  N_8 
REMARK       I    between atoms: N_8  and  C_10 
REMARK    3  A    between atoms: C_10  and  C_12 
REMARK    4  A    between atoms: C_14  and  O_15 
REMARK    5  A    between atoms: C_22  and  C_23 
REMARK    6  A    between atoms: C_23  and  C_24 
ROOT
HETATM    1  C   UNL     1      -3.440  14.260  22.012  0.00  0.00     0.158 A 
HETATM    2  C   UNL     1      -2.182  15.076  22.330  0.00  0.00     0.010 A 
HETATM    3  C   UNL     1      -3.929  14.484  20.571  0.00  0.00     0.062 A 
HETATM    4  C   UNL     1      -3.405  15.372  19.711  0.00  0.00     0.065 A 
HETATM    5  C   UNL     1      -2.277  16.168  20.169  0.00  0.00     0.064 A 
HETATM    6  C   UNL     1      -1.688  15.979  21.477  0.00  0.00     0.016 A 
HETATM    7  N   UNL     1      -1.649  17.107  19.561  0.00  0.00    -0.277 N 
HETATM    8  H   UNL     1      -1.856  17.474  18.631  0.00  0.00     0.189 HD
HETATM    9  N   UNL     1      -0.556  17.686  20.334  0.00  0.00    -0.178 NA
HETATM   10  C   UNL     1      -0.619  16.992  21.452  0.00  0.00     0.071 A 
ENDROOT
BRANCH   1  11
HETATM   11  C   UNL     1      -3.198  12.744  22.292  0.00  0.00     0.233 C 
HETATM   12  N   UNL     1      -3.403  12.265  23.589  0.00  0.00    -0.351 N 
HETATM   13  C   UNL     1      -3.607  13.122  24.752  0.00  0.00     0.153 C 
HETATM   14  O   UNL     1      -2.853  12.003  21.368  0.00  0.00    -0.272 OA
BRANCH  12  15
HETATM   15  C   UNL     1      -3.214  10.830  23.862  0.00  0.00     0.164 C 
BRANCH  15  16
HETATM   16  C   UNL     1      -1.853  10.372  24.345  0.00  0.00    -0.040 A 
HETATM   17  C   UNL     1      -1.601  10.177  25.714  0.00  0.00     0.009 A 
HETATM   18  C   UNL     1      -0.290  10.036  26.191  0.00  0.00     0.001 A 
HETATM   19  C   UNL     1       0.786  10.064  25.306  0.00  0.00     0.000 A 
HETATM   20  C   UNL     1       0.548  10.187  23.939  0.00  0.00     0.001 A 
HETATM   21  C   UNL     1      -0.761  10.330  23.461  0.00  0.00     0.009 A 
ENDBRANCH  15  16
ENDBRANCH  12  15
ENDBRANCH   1  11
BRANCH   3  22
HETATM   22  O   UNL     1      -5.032  13.763  20.140  0.00  0.00    -0.364 OA
HETATM   23  H   UNL     1      -5.026  13.666  19.169  0.00  0.00     0.217 HD
ENDBRANCH   3  22
BRANCH  10  24
HETATM   24  C   UNL     1       0.286  17.283  22.629  0.00  0.00     0.100 C 
BRANCH  24  25
HETATM   25  C   UNL     1       1.175  16.103  22.926  0.00  0.00    -0.052 A 
HETATM   26  C   UNL     1       0.989  15.352  24.092  0.00  0.00     0.007 A 
HETATM   27  C   UNL     1       1.862  14.312  24.411  0.00  0.00     0.001 A 
HETATM   28  C   UNL     1       2.932  14.013  23.570  0.00  0.00     0.007 A 
HETATM   29  C   UNL     1       3.133  14.742  22.393  0.00  0.00    -0.061 A 
HETATM   30  C   UNL     1       2.242  15.778  22.072  0.00  0.00     0.014 A 
HETATM   31  C   UNL     1       4.283  14.420  21.482  0.00  0.00     0.048 C 
ENDBRANCH  24  25
ENDBRANCH  10  24
TORSDOF 6
ENDMDL
MODEL 3
REMARK VINA RESULT:    -9.867      2.622      6.747
REMARK INTER + INTRA:         -12.990
REMARK INTER:                 -11.408
REMARK INTRA:                  -1.581
REMARK UNBOUND:                 0.050
REMARK  6 active torsions:
REMARK  status: ('A' for Active; 'I' for Inactive)
REMARK    1  A    between atoms: C_6  and  C_7 
REMARK    2  A    between atoms: C_7  and  N_8 
REMARK       I    between atoms: N_8  and  C_10 
REMARK    3  A    between atoms: C_10  and  C_12 
REMARK    4  A    between atoms: C_14  and  O_15 
REMARK    5  A    between atoms: C_22  and  C_23 
REMARK    6  A    between atoms: C_23  and  C_24 
ROOT
HETATM    1  C   UNL     1       0.285  12.718  24.287  0.00  0.00     0.158 A 
HETATM    2  C   UNL     1      -1.056  13.341  23.883  0.00  0.00     0.010 A 
HETATM    3  C   UNL     1       0.233  11.181  24.293  0.00  0.00     0.062 A 
HETATM    4  C   UNL     1      -0.873  10.449  24.090  0.00  0.00     0.065 A 
HETATM    5  C   UNL     1      -2.113  11.161  23.822  0.00  0.00     0.064 A 
HETATM    6  C   UNL     1      -2.158  12.603  23.714  0.00  0.00     0.016 A 
HETATM    7  N   UNL     1      -3.295  10.694  23.653  0.00  0.00    -0.277 N 
HETATM    8  H   UNL     1      -3.572   9.712  23.696  0.00  0.00     0.189 HD
HETATM    9  N   UNL     1      -4.305  11.714  23.399  0.00  0.00    -0.178 NA
HETATM   10  C   UNL     1      -3.590  12.820  23.446  0.00  0.00     0.071 A 
ENDROOT
BRANCH   1  11
HETATM   11  C   UNL     1       1.432  13.236  23.364  0.00  0.00     0.233 C 
HETATM   12  N   UNL     1       2.471  13.972  23.941  0.00  0.00    -0.351 N 
HETATM   13  C   UNL     1       2.445  14.487  25.306  0.00  0.00     0.153 C 
HETATM   14  O   UNL     1       1.409  12.971  22.160  0.00  0.00    -0.272 OA
BRANCH  12  15
HETATM   15  C   UNL     1       3.579  14.437  23.090  0.00  0.00     0.164 C 
BRANCH  15  16
HETATM   16  C   UNL     1       3.286  15.519  22.071  0.00  0.00    -0.040 A 
HETATM   17  C   UNL     1       2.429  16.590  22.381  0.00  0.00     0.009 A 
HETATM   18  C   UNL     1       1.931  17.427  21.372  0.00  0.00     0.001 A 
HETATM   19  C   UNL     1       2.298  17.222  20.044  0.00  0.00     0.000 A 
HETATM   20  C   UNL     1       3.200  16.209  19.730  0.00  0.00     0.001 A 
HETATM   21  C   UNL     1       3.699  15.370  20.736  0.00  0.00     0.009 A 
ENDBRANCH  15  16
ENDBRANCH  12  15
ENDBRANCH   1  11
BRANCH   3  22
HETATM   22  O   UNL     1       1.400  10.494  24.592  0.00  0.00    -0.364 OA
HETATM   23  H   UNL     1       2.070  10.629  23.896  0.00  0.00     0.217 HD
ENDBRANCH   3  22
BRANCH  10  24
HETATM   24  C   UNL     1      -4.220  14.189  23.316  0.00  0.00     0.100 C 
BRANCH  24  25
HETATM   25  C   UNL     1      -4.042  14.730  21.920  0.00  0.00    -0.052 A 
HETATM   26  C   UNL     1      -4.828  14.246  20.868  0.00  0.00     0.007 A 
HETATM   27  C   UNL     1      -4.609  14.683  19.562  0.00  0.00     0.001 A 
HETATM   28  C   UNL     1      -3.600  15.607  19.292  0.00  0.00     0.007 A 
HETATM   29  C   UNL     1      -2.808  16.113  20.328  0.00  0.00    -0.061 A 
HETATM   30  C   UNL     1      -3.044  15.680  21.642  0.00  0.00     0.014 A 
HETATM   31  C   UNL     1      -1.724  17.112  20.042  0.00  0.00     0.048 C 
ENDBRANCH  24  25
ENDBRANCH  10  24
TORSDOF 6
ENDMDL
MODEL 4
REMARK VINA RESULT:    -9.813      2.831      7.653
REMARK INTER + INTRA:         -12.917
REMARK INTER:                 -12.637
REMARK INTRA:                  -0.280
REMARK UNBOUND:                 0.050
REMARK  6 active torsions:
REMARK  status: ('A' for Active; 'I' for Inactive)
REMARK    1  A    between atoms: C_6  and  C_7 
REMARK    2  A    between atoms: C_7  and  N_8 
REMARK       I    between atoms: N_8  and  C_10 
REMARK    3  A    between atoms: C_10  and  C_12 
REMARK    4  A    between atoms: C_14  and  O_15 
REMARK    5  A    between atoms: C_22  and  C_23 
REMARK    6  A    between atoms: C_23  and  C_24 
ROOT
HETATM    1  C   UNL     1      -3.103  10.756  23.494  0.00  0.00     0.158 A 
HETATM    2  C   UNL     1      -2.041  10.416  24.545  0.00  0.00     0.010 A 
HETATM    3  C   UNL     1      -4.322  11.466  24.108  0.00  0.00     0.062 A 
HETATM    4  C   UNL     1      -4.511  11.669  25.422  0.00  0.00     0.065 A 
HETATM    5  C   UNL     1      -3.476  11.202  26.332  0.00  0.00     0.064 A 
HETATM    6  C   UNL     1      -2.253  10.595  25.852  0.00  0.00     0.016 A 
HETATM    7  N   UNL     1      -3.453  11.230  27.614  0.00  0.00    -0.277 N 
HETATM    8  H   UNL     1      -4.189  11.580  28.227  0.00  0.00     0.189 HD
HETATM    9  N   UNL     1      -2.239  10.669  28.197  0.00  0.00    -0.178 NA
HETATM   10  C   UNL     1      -1.566  10.309  27.124  0.00  0.00     0.071 A 
ENDROOT
BRANCH   1  11
HETATM   11  C   UNL     1      -2.484  11.605  22.339  0.00  0.00     0.233 C 
HETATM   12  N   UNL     1      -1.920  12.845  22.653  0.00  0.00    -0.351 N 
HETATM   13  C   UNL     1      -2.071  13.506  23.944  0.00  0.00     0.153 C 
HETATM   14  O   UNL     1      -2.487  11.159  21.190  0.00  0.00    -0.272 OA
BRANCH  12  15
HETATM   15  C   UNL     1      -1.300  13.641  21.581  0.00  0.00     0.164 C 
BRANCH  15  16
HETATM   16  C   UNL     1      -2.081  14.815  21.026  0.00  0.00    -0.040 A 
HETATM   17  C   UNL     1      -3.366  14.636  20.485  0.00  0.00     0.009 A 
HETATM   18  C   UNL     1      -3.971  15.645  19.721  0.00  0.00     0.001 A 
HETATM   19  C   UNL     1      -3.312  16.853  19.505  0.00  0.00     0.000 A 
HETATM   20  C   UNL     1      -2.068  17.072  20.092  0.00  0.00     0.001 A 
HETATM   21  C   UNL     1      -1.461  16.065  20.855  0.00  0.00     0.009 A 
ENDBRANCH  15  16
ENDBRANCH  12  15
ENDBRANCH   1  11
BRANCH   3  22
HETATM   22  O   UNL     1      -5.334  11.874  23.254  0.00  0.00    -0.364 OA
HETATM   23  H   UNL     1      -5.787  12.664  23.605  0.00  0.00     0.217 HD
ENDBRANCH   3  22
BRANCH  10  24
HETATM   24  C   UNL     1      -0.238   9.588  27.213  0.00  0.00     0.100 C 
BRANCH  24  25
HETATM   25  C   UNL     1      -0.389   8.137  26.834  0.00  0.00    -0.052 A 
HETATM   26  C   UNL     1      -0.797   7.196  27.786  0.00  0.00     0.007 A 
HETATM   27  C   UNL     1      -0.857   5.842  27.461  0.00  0.00     0.001 A 
HETATM   28  C   UNL     1      -0.508   5.411  26.182  0.00  0.00     0.007 A 
HETATM   29  C   UNL     1      -0.108   6.334  25.209  0.00  0.00    -0.061 A 
HETATM   30  C   UNL     1      -0.064   7.698  25.540  0.00  0.00     0.014 A 
HETATM   31  C   UNL     1       0.264   5.876  23.829  0.00  0.00     0.048 C 
ENDBRANCH  24  25
ENDBRANCH  10  24
TORSDOF 6
ENDMDL
MODEL 5
REMARK VINA RESULT:    -9.794      1.817      2.723
REMARK INTER + INTRA:         -12.893
REMARK INTER:                 -11.873
REMARK INTRA:                  -1.020
REMARK UNBOUND:                 0.050
REMARK  6 active torsions:
REMARK  status: ('A' for Active; 'I' for Inactive)
REMARK    1  A    between atoms: C_6  and  C_7 
REMARK    2  A    between atoms: C_7  and  N_8 
REMARK       I    between atoms: N_8  and  C_10 
REMARK    3  A    between atoms: C_10  and  C_12 
REMARK    4  A    between atoms: C_14  and  O_15 
REMARK    5  A    between atoms: C_22  and  C_23 
REMARK    6  A    between atoms: C_23  and  C_24 
ROOT
HETATM    1  C   UNL     1      -2.570  15.058  22.548  0.00  0.00     0.158 A 
HETATM    2  C   UNL     1      -1.190  15.689  22.336  0.00  0.00     0.010 A 
HETATM    3  C   UNL     1      -3.501  15.278  21.342  0.00  0.00     0.062 A 
HETATM    4  C   UNL     1      -3.204  16.029  20.270  0.00  0.00     0.065 A 
HETATM    5  C   UNL     1      -1.898  16.667  20.235  0.00  0.00     0.064 A 
HETATM    6  C   UNL     1      -0.917  16.460  21.279  0.00  0.00     0.016 A 
HETATM    7  N   UNL     1      -1.410  17.466  19.357  0.00  0.00    -0.277 N 
HETATM    8  H   UNL     1      -1.882  17.810  18.521  0.00  0.00     0.189 HD
HETATM    9  N   UNL     1      -0.053  17.912  19.651  0.00  0.00    -0.178 NA
HETATM   10  C   UNL     1       0.193  17.296  20.789  0.00  0.00     0.071 A 
ENDROOT
BRANCH   1  11
HETATM   11  C   UNL     1      -2.437  13.540  22.883  0.00  0.00     0.233 C 
HETATM   12  N   UNL     1      -2.194  13.169  24.209  0.00  0.00    -0.351 N 
HETATM   13  C   UNL     1      -1.831  14.109  25.265  0.00  0.00     0.153 C 
HETATM   14  O   UNL     1      -2.566  12.706  21.984  0.00  0.00    -0.272 OA
BRANCH  12  15
HETATM   15  C   UNL     1      -2.102  11.739  24.548  0.00  0.00     0.164 C 
BRANCH  15  16
HETATM   16  C   UNL     1      -3.355  11.043  25.037  0.00  0.00    -0.040 A 
HETATM   17  C   UNL     1      -4.354  10.637  24.135  0.00  0.00     0.009 A 
HETATM   18  C   UNL     1      -5.625  10.259  24.592  0.00  0.00     0.001 A 
HETATM   19  C   UNL     1      -5.909  10.258  25.956  0.00  0.00     0.000 A 
HETATM   20  C   UNL     1      -4.909  10.590  26.866  0.00  0.00     0.001 A 
HETATM   21  C   UNL     1      -3.639  10.971  26.411  0.00  0.00     0.009 A 
ENDBRANCH  15  16
ENDBRANCH  12  15
ENDBRANCH   1  11
BRANCH   3  22
HETATM   22  O   UNL     1      -4.765  14.711  21.387  0.00  0.00    -0.364 OA
HETATM   23  H   UNL     1      -5.378  15.271  21.900  0.00  0.00     0.217 HD
ENDBRANCH   3  22
BRANCH  10  24
HETATM   24  C   UNL     1       1.482  17.508  21.554  0.00  0.00     0.100 C 
BRANCH  24  25
HETATM   25  C   UNL     1       2.413  16.338  21.369  0.00  0.00    -0.052 A 
HETATM   26  C   UNL     1       2.007  15.221  20.630  0.00  0.00     0.007 A 
HETATM   27  C   UNL     1       2.834  14.103  20.526  0.00  0.00     0.001 A 
HETATM   28  C   UNL     1       4.074  14.086  21.163  0.00  0.00     0.007 A 
HETATM   29  C   UNL     1       4.507  15.195  21.898  0.00  0.00    -0.061 A 
HETATM   30  C   UNL     1       3.675  16.322  21.986  0.00  0.00     0.014 A 
HETATM   31  C   UNL     1       5.844  15.184  22.582  0.00  0.00     0.048 C 
ENDBRANCH  24  25
ENDBRANCH  10  24
TORSDOF 6
ENDMDL
MODEL 6
REMARK VINA RESULT:    -9.794      2.425      4.875
REMARK INTER + INTRA:         -12.892
REMARK INTER:                 -11.652
REMARK INTRA:                  -1.240
REMARK UNBOUND:                 0.050
REMARK  6 active torsions:
REMARK  status: ('A' for Active; 'I' for Inactive)
REMARK    1  A    between atoms: C_6  and  C_7 
REMARK    2  A    between atoms: C_7  and  N_8 
REMARK       I    between atoms: N_8  and  C_10 
REMARK    3  A    between atoms: C_10  and  C_12 
REMARK    4  A    between atoms: C_14  and  O_15 
REMARK    5  A    between atoms: C_22  and  C_23 
REMARK    6  A    between atoms: C_23  and  C_24 
ROOT
HETATM    1  C   UNL     1      -1.263  12.755  23.232  0.00  0.00     0.158 A 
HETATM    2  C   UNL     1      -1.689  14.039  22.513  0.00  0.00     0.010 A 
HETATM    3  C   UNL     1      -1.858  11.497  22.575  0.00  0.00     0.062 A 
HETATM    4  C   UNL     1      -2.742  11.503  21.565  0.00  0.00     0.065 A 
HETATM    5  C   UNL     1      -3.154  12.795  21.037  0.00  0.00     0.064 A 
HETATM    6  C   UNL     1      -2.594  14.035  21.528  0.00  0.00     0.016 A 
HETATM    7  N   UNL     1      -4.015  13.059  20.124  0.00  0.00    -0.277 N 
HETATM    8  H   UNL     1      -4.586  12.384  19.613  0.00  0.00     0.189 HD
HETATM    9  N   UNL     1      -4.169  14.483  19.850  0.00  0.00    -0.178 NA
HETATM   10  C   UNL     1      -3.315  15.016  20.699  0.00  0.00     0.071 A 
ENDROOT
BRANCH   1  11
HETATM   11  C   UNL     1       0.292  12.661  23.316  0.00  0.00     0.233 C 
HETATM   12  N   UNL     1       0.974  13.584  24.115  0.00  0.00    -0.351 N 
HETATM   13  C   UNL     1       0.356  14.771  24.696  0.00  0.00     0.153 C 
HETATM   14  O   UNL     1       0.881  11.771  22.697  0.00  0.00    -0.272 OA
BRANCH  12  15
HETATM   15  C   UNL     1       2.438  13.485  24.233  0.00  0.00     0.164 C 
BRANCH  15  16
HETATM   16  C   UNL     1       3.283  14.184  23.187  0.00  0.00    -0.040 A 
HETATM   17  C   UNL     1       2.837  14.301  21.859  0.00  0.00     0.009 A 
HETATM   18  C   UNL     1       3.717  14.683  20.836  0.00  0.00     0.001 A 
HETATM   19  C   UNL     1       5.047  14.974  21.127  0.00  0.00     0.000 A 
HETATM   20  C   UNL     1       5.488  14.930  22.447  0.00  0.00     0.001 A 
HETATM   21  C   UNL     1       4.610  14.548  23.471  0.00  0.00     0.009 A 
ENDBRANCH  15  16
ENDBRANCH  12  15
ENDBRANCH   1  11
BRANCH   3  22
HETATM   22  O   UNL     1      -1.507  10.263  23.100  0.00  0.00    -0.364 OA
HETATM   23  H   UNL     1      -2.214   9.919  23.678  0.00  0.00     0.217 HD
ENDBRANCH   3  22
BRANCH  10  24
HETATM   24  C   UNL     1      -3.164  16.514  20.852  0.00  0.00     0.100 C 
BRANCH  24  25
HETATM   25  C   UNL     1      -1.735  16.935  20.618  0.00  0.00    -0.052 A 
HETATM   26  C   UNL     1      -1.275  17.182  19.320  0.00  0.00     0.007 A 
HETATM   27  C   UNL     1       0.066  17.490  19.092  0.00  0.00     0.001 A 
HETATM   28  C   UNL     1       0.962  17.551  20.157  0.00  0.00     0.007 A 
HETATM   29  C   UNL     1       0.524  17.318  21.465  0.00  0.00    -0.061 A 
HETATM   30  C   UNL     1      -0.830  17.023  21.688  0.00  0.00     0.014 A 
HETATM   31  C   UNL     1       1.485  17.386  22.617  0.00  0.00     0.048 C 
ENDBRANCH  24  25
ENDBRANCH  10  24
TORSDOF 6
ENDMDL
MODEL 7
REMARK VINA RESULT:    -9.734      2.361      6.342
REMARK INTER + INTRA:         -12.814
REMARK INTER:                 -11.490
REMARK INTRA:                  -1.324
REMARK UNBOUND:                 0.050
REMARK  6 active torsions:
REMARK  status: ('A' for Active; 'I' for Inactive)
REMARK    1  A    between atoms: C_6  and  C_7 
REMARK    2  A    between atoms: C_7  and  N_8 
REMARK       I    between atoms: N_8  and  C_10 
REMARK    3  A    between atoms: C_10  and  C_12 
REMARK    4  A    between atoms: C_14  and  O_15 
REMARK    5  A    between atoms: C_22  and  C_23 
REMARK    6  A    between atoms: C_23  and  C_24 
ROOT
HETATM    1  C   UNL     1      -3.718  11.475  24.780  0.00  0.00     0.158 A 
HETATM    2  C   UNL     1      -2.260  11.134  24.454  0.00  0.00     0.010 A 
HETATM    3  C   UNL     1      -4.038  11.287  26.274  0.00  0.00     0.062 A 
HETATM    4  C   UNL     1      -3.194  10.774  27.182  0.00  0.00     0.065 A 
HETATM    5  C   UNL     1      -1.868  10.386  26.725  0.00  0.00     0.064 A 
HETATM    6  C   UNL     1      -1.438  10.595  25.359  0.00  0.00     0.016 A 
HETATM    7  N   UNL     1      -0.916   9.829  27.381  0.00  0.00    -0.277 N 
HETATM    8  H   UNL     1      -0.940   9.542  28.360  0.00  0.00     0.189 HD
HETATM    9  N   UNL     1       0.285   9.586  26.590  0.00  0.00    -0.178 NA
HETATM   10  C   UNL     1      -0.070  10.051  25.410  0.00  0.00     0.071 A 
ENDROOT
BRANCH   1  11
HETATM   11  C   UNL     1      -4.064  12.923  24.311  0.00  0.00     0.233 C 
HETATM   12  N   UNL     1      -4.017  13.210  22.944  0.00  0.00    -0.351 N 
HETATM   13  C   UNL     1      -3.447  12.314  21.943  0.00  0.00     0.153 C 
HETATM   14  O   UNL     1      -4.387  13.771  25.147  0.00  0.00    -0.272 OA
BRANCH  12  15
HETATM   15  C   UNL     1      -4.375  14.561  22.482  0.00  0.00     0.164 C 
BRANCH  15  16
HETATM   16  C   UNL     1      -3.422  15.264  21.537  0.00  0.00    -0.040 A 
HETATM   17  C   UNL     1      -2.092  15.523  21.912  0.00  0.00     0.009 A 
HETATM   18  C   UNL     1      -1.297  16.411  21.173  0.00  0.00     0.001 A 
HETATM   19  C   UNL     1      -1.809  17.035  20.038  0.00  0.00     0.000 A 
HETATM   20  C   UNL     1      -3.102  16.736  19.614  0.00  0.00     0.001 A 
HETATM   21  C   UNL     1      -3.899  15.850  20.352  0.00  0.00     0.009 A 
ENDBRANCH  15  16
ENDBRANCH  12  15
ENDBRANCH   1  11
BRANCH   3  22
HETATM   22  O   UNL     1      -5.314  11.612  26.709  0.00  0.00    -0.364 OA
HETATM   23  H   UNL     1      -5.509  12.554  26.540  0.00  0.00     0.217 HD
ENDBRANCH   3  22
BRANCH  10  24
HETATM   24  C   UNL     1       0.836   9.950  24.202  0.00  0.00     0.100 C 
BRANCH  24  25
HETATM   25  C   UNL     1       0.847  11.245  23.431  0.00  0.00    -0.052 A 
HETATM   26  C   UNL     1       0.331  11.298  22.131  0.00  0.00     0.007 A 
HETATM   27  C   UNL     1       0.415  12.473  21.385  0.00  0.00     0.001 A 
HETATM   28  C   UNL     1       1.018  13.607  21.927  0.00  0.00     0.007 A 
HETATM   29  C   UNL     1       1.532  13.581  23.228  0.00  0.00    -0.061 A 
HETATM   30  C   UNL     1       1.430  12.400  23.978  0.00  0.00     0.014 A 
HETATM   31  C   UNL     1       2.178  14.801  23.818  0.00  0.00     0.048 C 
ENDBRANCH  24  25
ENDBRANCH  10  24
TORSDOF 6
ENDMDL
MODEL 8
REMARK VINA RESULT:    -9.475      2.753      7.296
REMARK INTER + INTRA:         -12.471
REMARK INTER:                 -11.119
REMARK INTRA:                  -1.352
REMARK UNBOUND:                 0.050
REMARK  6 active torsions:
REMARK  status: ('A' for Active; 'I' for Inactive)
REMARK    1  A    between atoms: C_6  and  C_7 
REMARK    2  A    between atoms: C_7  and  N_8 
REMARK       I    between atoms: N_8  and  C_10 
REMARK    3  A    between atoms: C_10  and  C_12 
REMARK    4  A    between atoms: C_14  and  O_15 
REMARK    5  A    between atoms: C_22  and  C_23 
REMARK    6  A    between atoms: C_23  and  C_24 
ROOT
HETATM    1  C   UNL     1      -2.243  11.903  23.522  0.00  0.00     0.158 A 
HETATM    2  C   UNL     1      -1.553  11.272  24.736  0.00  0.00     0.010 A 
HETATM    3  C   UNL     1      -3.684  12.343  23.836  0.00  0.00     0.062 A 
HETATM    4  C   UNL     1      -4.324  12.109  24.993  0.00  0.00     0.065 A 
HETATM    5  C   UNL     1      -3.595  11.402  26.035  0.00  0.00     0.064 A 
HETATM    6  C   UNL     1      -2.210  11.016  25.872  0.00  0.00     0.016 A 
HETATM    7  N   UNL     1      -4.001  11.017  27.189  0.00  0.00    -0.277 N 
HETATM    8  H   UNL     1      -4.941  11.132  27.571  0.00  0.00     0.189 HD
HETATM    9  N   UNL     1      -2.984  10.333  27.978  0.00  0.00    -0.178 NA
HETATM   10  C   UNL     1      -1.950  10.355  27.163  0.00  0.00     0.071 A 
ENDROOT
BRANCH   1  11
HETATM   11  C   UNL     1      -1.402  13.094  22.967  0.00  0.00     0.233 C 
HETATM   12  N   UNL     1      -0.437  12.830  21.990  0.00  0.00    -0.351 N 
HETATM   13  C   UNL     1      -0.002  11.489  21.615  0.00  0.00     0.153 C 
HETATM   14  O   UNL     1      -1.616  14.234  23.383  0.00  0.00    -0.272 OA
BRANCH  12  15
HETATM   15  C   UNL     1       0.340  13.948  21.430  0.00  0.00     0.164 C 
BRANCH  15  16
HETATM   16  C   UNL     1       1.817  14.022  21.761  0.00  0.00    -0.040 A 
HETATM   17  C   UNL     1       2.253  14.147  23.091  0.00  0.00     0.009 A 
HETATM   18  C   UNL     1       3.579  14.500  23.382  0.00  0.00     0.001 A 
HETATM   19  C   UNL     1       4.493  14.710  22.351  0.00  0.00     0.000 A 
HETATM   20  C   UNL     1       4.093  14.521  21.031  0.00  0.00     0.001 A 
HETATM   21  C   UNL     1       2.768  14.170  20.737  0.00  0.00     0.009 A 
ENDBRANCH  15  16
ENDBRANCH  12  15
ENDBRANCH   1  11
BRANCH   3  22
HETATM   22  O   UNL     1      -4.402  12.976  22.834  0.00  0.00    -0.364 OA
HETATM   23  H   UNL     1      -5.360  12.927  23.010  0.00  0.00     0.217 HD
ENDBRANCH   3  22
BRANCH  10  24
HETATM   24  C   UNL     1      -0.640   9.681  27.509  0.00  0.00     0.100 C 
BRANCH  24  25
HETATM   25  C   UNL     1      -0.607   8.270  26.980  0.00  0.00    -0.052 A 
HETATM   26  C   UNL     1      -0.892   7.191  27.825  0.00  0.00     0.007 A 
HETATM   27  C   UNL     1      -0.782   5.881  27.360  0.00  0.00     0.001 A 
HETATM   28  C   UNL     1      -0.382   5.634  26.048  0.00  0.00     0.007 A 
HETATM   29  C   UNL     1      -0.102   6.696  25.181  0.00  0.00    -0.061 A 
HETATM   30  C   UNL     1      -0.230   8.012  25.652  0.00  0.00     0.014 A 
HETATM   31  C   UNL     1       0.324   6.434  23.765  0.00  0.00     0.048 C 
ENDBRANCH  24  25
ENDBRANCH  10  24
TORSDOF 6
ENDMDL
MODEL 9
REMARK VINA RESULT:    -9.391      3.122      6.088
REMARK INTER + INTRA:         -12.360
REMARK INTER:                 -12.410
REMARK INTRA:                   0.050
REMARK UNBOUND:                 0.050
REMARK  6 active torsions:
REMARK  status: ('A' for Active; 'I' for Inactive)
REMARK    1  A    between atoms: C_6  and  C_7 
REMARK    2  A    between atoms: C_7  and  N_8 
REMARK       I    between atoms: N_8  and  C_10 
REMARK    3  A    between atoms: C_10  and  C_12 
REMARK    4  A    between atoms: C_14  and  O_15 
REMARK    5  A    between atoms: C_22  and  C_23 
REMARK    6  A    between atoms: C_23  and  C_24 
ROOT
HETATM    1  C   UNL     1      -1.106  15.168  24.855  0.00  0.00     0.158 A 
HETATM    2  C   UNL     1      -1.616  14.606  23.523  0.00  0.00     0.010 A 
HETATM    3  C   UNL     1      -1.784  14.501  26.064  0.00  0.00     0.062 A 
HETATM    4  C   UNL     1      -2.789  13.614  25.989  0.00  0.00     0.065 A 
HETATM    5  C   UNL     1      -3.259  13.240  24.664  0.00  0.00     0.064 A 
HETATM    6  C   UNL     1      -2.637  13.746  23.460  0.00  0.00     0.016 A 
HETATM    7  N   UNL     1      -4.229  12.465  24.338  0.00  0.00    -0.277 N 
HETATM    8  H   UNL     1      -4.862  11.983  24.977  0.00  0.00     0.189 HD
HETATM    9  N   UNL     1      -4.411  12.318  22.899  0.00  0.00    -0.178 NA
HETATM   10  C   UNL     1      -3.455  13.090  22.425  0.00  0.00     0.071 A 
ENDROOT
BRANCH   1  11
HETATM   11  C   UNL     1       0.447  15.047  24.946  0.00  0.00     0.233 C 
HETATM   12  N   UNL     1       1.055  13.886  24.460  0.00  0.00    -0.351 N 
HETATM   13  C   UNL     1       0.324  12.681  24.081  0.00  0.00     0.153 C 
HETATM   14  O   UNL     1       1.101  15.978  25.422  0.00  0.00    -0.272 OA
BRANCH  12  15
HETATM   15  C   UNL     1       2.522  13.772  24.505  0.00  0.00     0.164 C 
BRANCH  15  16
HETATM   16  C   UNL     1       3.301  14.129  23.255  0.00  0.00    -0.040 A 
HETATM   17  C   UNL     1       4.653  14.504  23.330  0.00  0.00     0.009 A 
HETATM   18  C   UNL     1       5.294  15.103  22.236  0.00  0.00     0.001 A 
HETATM   19  C   UNL     1       4.602  15.316  21.046  0.00  0.00     0.000 A 
HETATM   20  C   UNL     1       3.282  14.887  20.934  0.00  0.00     0.001 A 
HETATM   21  C   UNL     1       2.639  14.289  22.026  0.00  0.00     0.009 A 
ENDBRANCH  15  16
ENDBRANCH  12  15
ENDBRANCH   1  11
BRANCH   3  22
HETATM   22  O   UNL     1      -1.373  14.885  27.331  0.00  0.00    -0.364 OA
HETATM   23  H   UNL     1      -0.547  14.431  27.581  0.00  0.00     0.217 HD
ENDBRANCH   3  22
BRANCH  10  24
HETATM   24  C   UNL     1      -3.280  13.332  20.942  0.00  0.00     0.100 C 
BRANCH  24  25
HETATM   25  C   UNL     1      -3.135  14.805  20.653  0.00  0.00    -0.052 A 
HETATM   26  C   UNL     1      -4.268  15.619  20.544  0.00  0.00     0.007 A 
HETATM   27  C   UNL     1      -4.142  16.963  20.196  0.00  0.00     0.001 A 
HETATM   28  C   UNL     1      -2.884  17.508  19.948  0.00  0.00     0.007 A 
HETATM   29  C   UNL     1      -1.735  16.718  20.062  0.00  0.00    -0.061 A 
HETATM   30  C   UNL     1      -1.869  15.369  20.427  0.00  0.00     0.014 A 
HETATM   31  C   UNL     1      -0.377  17.302  19.801  0.00  0.00     0.048 C 
ENDBRANCH  24  25
ENDBRANCH  10  24
TORSDOF 6
ENDMDL
