REMARK  6 active torsions:
REMARK  status: ('A' for Active; 'I' for Inactive)
REMARK    1  A    between atoms: C_6  and  C_7 
REMARK    2  A    between atoms: C_7  and  N_8 
REMARK       I    between atoms: N_8  and  C_10 
REMARK    3  A    between atoms: C_10  and  C_12 
REMARK    4  A    between atoms: C_14  and  O_15 
REMARK    5  A    between atoms: C_22  and  C_23 
REMARK    6  A    between atoms: C_23  and  C_24 
ROOT
HETATM    1  C   UNL     1      -5.842   2.609  -0.225  0.00  0.00     0.158 A 
HETATM    2  C   UNL     1      -5.350   3.874   0.487  0.00  0.00     0.010 A 
HETATM    3  C   UNL     1      -6.206   2.875  -1.696  0.00  0.00     0.062 A 
HETATM    4  C   UNL     1      -6.214   4.084  -2.279  0.00  0.00     0.065 A 
HETATM    5  C   UNL     1      -5.830   5.227  -1.465  0.00  0.00     0.064 A 
HETATM    6  C   UNL     1      -5.392   5.077  -0.094  0.00  0.00     0.016 A 
HETATM    7  N   UNL     1      -5.812   6.472  -1.774  0.00  0.00    -0.277 N 
HETATM    8  H   UNL     1      -6.091   6.880  -2.667  0.00  0.00     0.189 HD
HETATM    9  N   UNL     1      -5.363   7.344  -0.695  0.00  0.00    -0.178 NA
HETATM   10  C   UNL     1      -5.129   6.480   0.271  0.00  0.00     0.071 A 
ENDROOT
BRANCH   1  11
HETATM   11  C   UNL     1      -4.787   1.465  -0.107  0.00  0.00     0.233 C 
HETATM   12  N   UNL     1      -4.963   0.496   0.885  0.00  0.00    -0.351 N 
HETATM   13  C   UNL     1      -5.938   0.603   1.965  0.00  0.00     0.153 C 
HETATM   14  O   UNL     1      -3.840   1.429  -0.896  0.00  0.00    -0.272 OA
BRANCH  12  15
HETATM   15  C   UNL     1      -3.996  -0.610   0.986  0.00  0.00     0.164 C 
BRANCH  15  16
HETATM   16  C   UNL     1      -4.429  -1.978   0.499  0.00  0.00    -0.040 A 
HETATM   17  C   UNL     1      -4.850  -2.967   1.405  0.00  0.00     0.009 A 
HETATM   18  C   UNL     1      -4.976  -4.304   1.002  0.00  0.00     0.001 A 
HETATM   19  C   UNL     1      -4.706  -4.669  -0.315  0.00  0.00     0.000 A 
HETATM   20  C   UNL     1      -4.355  -3.690  -1.241  0.00  0.00     0.001 A 
HETATM   21  C   UNL     1      -4.227  -2.353  -0.840  0.00  0.00     0.009 A 
ENDBRANCH  15  16
ENDBRANCH  12  15
ENDBRANCH   1  11
BRANCH   3  22
HETATM   22  O   UNL     1      -6.617   1.799  -2.467  0.00  0.00    -0.364 OA
HETATM   23  H   UNL     1      -6.288   0.959  -2.094  0.00  0.00     0.217 HD
ENDBRANCH   3  22
BRANCH  10  24
HETATM   24  C   UNL     1      -4.706   6.919   1.656  0.00  0.00     0.100 C 
BRANCH  24  25
HETATM   25  C   UNL     1      -5.908   7.138   2.539  0.00  0.00    -0.052 A 
HETATM   26  C   UNL     1      -6.372   6.111   3.369  0.00  0.00     0.007 A 
HETATM   27  C   UNL     1      -7.532   6.282   4.124  0.00  0.00     0.001 A 
HETATM   28  C   UNL     1      -8.243   7.479   4.056  0.00  0.00     0.007 A 
HETATM   29  C   UNL     1      -7.793   8.524   3.242  0.00  0.00    -0.061 A 
HETATM   30  C   UNL     1      -6.617   8.350   2.496  0.00  0.00     0.014 A 
HETATM   31  C   UNL     1      -8.553   9.817   3.169  0.00  0.00     0.048 C 
ENDBRANCH  24  25
ENDBRANCH  10  24
TORSDOF 6
