MODEL 1
REMARK VINA RESULT:    -7.569      0.000      0.000
REMARK INTER + INTRA:          -8.707
REMARK INTER:                  -8.231
REMARK INTRA:                  -0.476
REMARK UNBOUND:                -0.475
REMARK  2 active torsions:
REMARK  status: ('A' for Active; 'I' for Inactive)
REMARK    1  A    between atoms: C_7  and  N_8 
REMARK    2  A    between atoms: C_10  and  C_11 
REMARK       I    between atoms: C_11  and  N_13 
ROOT
HETATM    1  C   UNL     1       1.571   3.721  20.260  0.00  0.00     0.048 C 
HETATM    2  C   UNL     1       2.623   4.667  19.763  0.00  0.00    -0.061 A 
HETATM    3  C   UNL     1       2.800   4.913  18.407  0.00  0.00     0.009 A 
HETATM    4  C   UNL     1       3.779   5.818  17.985  0.00  0.00     0.033 A 
HETATM    5  C   UNL     1       4.603   6.494  18.879  0.00  0.00     0.073 A 
HETATM    6  N   UNL     1       5.501   7.351  18.385  0.00  0.00    -0.218 NA
HETATM    7  C   UNL     1       6.287   8.005  19.238  0.00  0.00     0.200 A 
HETATM    8  N   UNL     1       6.285   7.846  20.557  0.00  0.00    -0.212 NA
HETATM    9  C   UNL     1       5.380   6.966  21.044  0.00  0.00     0.140 A 
HETATM   10  C   UNL     1       4.462   6.249  20.245  0.00  0.00     0.028 A 
HETATM   11  C   UNL     1       3.446   5.341  20.672  0.00  0.00     0.023 A 
ENDROOT
BRANCH   9  12
HETATM   12  C   UNL     1       5.475   6.685  22.519  0.00  0.00     0.274 C 
HETATM   13  O   UNL     1       6.385   5.960  22.931  0.00  0.00    -0.266 OA
HETATM   14  N   UNL     1       4.572   7.219  23.427  0.00  0.00    -0.338 N 
HETATM   15  C   UNL     1       3.448   8.144  23.215  0.00  0.00     0.165 A 
HETATM   16  C   UNL     1       4.700   6.814  24.821  0.00  0.00     0.165 A 
HETATM   17  C   UNL     1       2.854   8.286  24.592  0.00  0.00    -0.032 A 
HETATM   18  C   UNL     1       1.773   9.041  25.018  0.00  0.00     0.011 A 
HETATM   19  C   UNL     1       3.578   7.511  25.507  0.00  0.00    -0.031 A 
HETATM   20  C   UNL     1       1.422   8.999  26.375  0.00  0.00     0.019 A 
HETATM   21  C   UNL     1       2.150   8.208  27.278  0.00  0.00     0.011 A 
HETATM   22 BR   UNL     1       1.652   8.159  29.103  0.00  0.00    -0.051 Br
HETATM   23  C   UNL     1       3.241   7.456  26.850  0.00  0.00     0.028 A 
ENDBRANCH   9  12
BRANCH   7  24
HETATM   24  N   UNL     1       7.197   8.884  18.691  0.00  0.00    -0.271 NA
HETATM   25  H   UNL     1       7.152   9.764  19.184  0.00  0.00     0.127 HD
HETATM   26  H   UNL     1       7.091   8.918  17.686  0.00  0.00     0.127 HD
ENDBRANCH   7  24
TORSDOF 2
ENDMDL
MODEL 2
REMARK VINA RESULT:    -7.215      4.513      8.816
REMARK INTER + INTRA:          -8.322
REMARK INTER:                  -7.865
REMARK INTRA:                  -0.457
REMARK UNBOUND:                -0.475
REMARK  2 active torsions:
REMARK  status: ('A' for Active; 'I' for Inactive)
REMARK    1  A    between atoms: C_7  and  N_8 
REMARK    2  A    between atoms: C_10  and  C_11 
REMARK       I    between atoms: C_11  and  N_13 
ROOT
HETATM    1  C   UNL     1       4.217   6.816  30.578  0.00  0.00     0.048 C 
HETATM    2  C   UNL     1       2.918   7.516  30.312  0.00  0.00    -0.061 A 
HETATM    3  C   UNL     1       2.210   8.147  31.328  0.00  0.00     0.009 A 
HETATM    4  C   UNL     1       1.012   8.806  31.036  0.00  0.00     0.033 A 
HETATM    5  C   UNL     1       0.484   8.856  29.749  0.00  0.00     0.073 A 
HETATM    6  N   UNL     1      -0.660   9.523  29.562  0.00  0.00    -0.218 NA
HETATM    7  C   UNL     1      -1.164   9.579  28.330  0.00  0.00     0.200 A 
HETATM    8  N   UNL     1      -0.644   8.985  27.262  0.00  0.00    -0.212 NA
HETATM    9  C   UNL     1       0.507   8.304  27.467  0.00  0.00     0.140 A 
HETATM   10  C   UNL     1       1.162   8.212  28.715  0.00  0.00     0.028 A 
HETATM   11  C   UNL     1       2.396   7.560  29.014  0.00  0.00     0.023 A 
ENDROOT
BRANCH   9  12
HETATM   12  C   UNL     1       1.017   7.519  26.289  0.00  0.00     0.274 C 
HETATM   13  O   UNL     1       0.703   6.331  26.183  0.00  0.00    -0.266 OA
HETATM   14  N   UNL     1       1.826   8.095  25.320  0.00  0.00    -0.338 N 
HETATM   15  C   UNL     1       2.295   9.481  25.176  0.00  0.00     0.165 A 
HETATM   16  C   UNL     1       2.338   7.225  24.268  0.00  0.00     0.165 A 
HETATM   17  C   UNL     1       3.167   9.425  23.949  0.00  0.00    -0.032 A 
HETATM   18  C   UNL     1       3.876  10.434  23.317  0.00  0.00     0.011 A 
HETATM   19  C   UNL     1       3.189   8.121  23.437  0.00  0.00    -0.031 A 
HETATM   20  C   UNL     1       4.618  10.114  22.172  0.00  0.00     0.019 A 
HETATM   21  C   UNL     1       4.640   8.799  21.678  0.00  0.00     0.011 A 
HETATM   22 BR   UNL     1       5.656   8.388  20.136  0.00  0.00    -0.051 Br
HETATM   23  C   UNL     1       3.921   7.787  22.309  0.00  0.00     0.028 A 
ENDBRANCH   9  12
BRANCH   7  24
HETATM   24  N   UNL     1      -2.342  10.278  28.177  0.00  0.00    -0.271 NA
HETATM   25  H   UNL     1      -3.102   9.745  28.575  0.00  0.00     0.127 HD
HETATM   26  H   UNL     1      -2.449  10.579  27.218  0.00  0.00     0.127 HD
ENDBRANCH   7  24
TORSDOF 2
ENDMDL
MODEL 3
REMARK VINA RESULT:    -7.186      2.047      2.887
REMARK INTER + INTRA:          -8.291
REMARK INTER:                  -7.793
REMARK INTRA:                  -0.497
REMARK UNBOUND:                -0.475
REMARK  2 active torsions:
REMARK  status: ('A' for Active; 'I' for Inactive)
REMARK    1  A    between atoms: C_7  and  N_8 
REMARK    2  A    between atoms: C_10  and  C_11 
REMARK       I    between atoms: C_11  and  N_13 
ROOT
HETATM    1  C   UNL     1       0.768   5.176  19.177  0.00  0.00     0.048 C 
HETATM    2  C   UNL     1       2.128   5.783  19.003  0.00  0.00    -0.061 A 
HETATM    3  C   UNL     1       2.839   5.650  17.817  0.00  0.00     0.009 A 
HETATM    4  C   UNL     1       4.096   6.248  17.689  0.00  0.00     0.033 A 
HETATM    5  C   UNL     1       4.681   6.982  18.717  0.00  0.00     0.073 A 
HETATM    6  N   UNL     1       5.880   7.530  18.498  0.00  0.00    -0.218 NA
HETATM    7  C   UNL     1       6.439   8.239  19.477  0.00  0.00     0.200 A 
HETATM    8  N   UNL     1       5.920   8.416  20.687  0.00  0.00    -0.212 NA
HETATM    9  C   UNL     1       4.711   7.846  20.900  0.00  0.00     0.140 A 
HETATM   10  C   UNL     1       3.999   7.112  19.926  0.00  0.00     0.028 A 
HETATM   11  C   UNL     1       2.706   6.518  20.045  0.00  0.00     0.023 A 
ENDROOT
BRANCH   9  12
HETATM   12  C   UNL     1       4.192   7.930  22.309  0.00  0.00     0.274 C 
HETATM   13  O   UNL     1       3.488   8.893  22.629  0.00  0.00    -0.266 OA
HETATM   14  N   UNL     1       4.478   6.957  23.256  0.00  0.00    -0.338 N 
HETATM   15  C   UNL     1       5.230   5.700  23.127  0.00  0.00     0.165 A 
HETATM   16  C   UNL     1       3.999   7.179  24.615  0.00  0.00     0.165 A 
HETATM   17  C   UNL     1       5.207   5.140  24.526  0.00  0.00    -0.032 A 
HETATM   18  C   UNL     1       5.749   3.964  25.019  0.00  0.00     0.011 A 
HETATM   19  C   UNL     1       4.502   6.002  25.375  0.00  0.00    -0.031 A 
HETATM   20  C   UNL     1       5.582   3.670  26.380  0.00  0.00     0.019 A 
HETATM   21  C   UNL     1       4.882   4.551  27.221  0.00  0.00     0.011 A 
HETATM   22 BR   UNL     1       4.678   4.139  29.056  0.00  0.00    -0.051 Br
HETATM   23  C   UNL     1       4.332   5.729  26.722  0.00  0.00     0.028 A 
ENDBRANCH   9  12
BRANCH   7  24
HETATM   24  N   UNL     1       7.673   8.791  19.212  0.00  0.00    -0.271 NA
HETATM   25  H   UNL     1       7.590   9.798  19.180  0.00  0.00     0.127 HD
HETATM   26  H   UNL     1       8.094   8.343  18.409  0.00  0.00     0.127 HD
ENDBRANCH   7  24
TORSDOF 2
ENDMDL
MODEL 4
REMARK VINA RESULT:    -7.107      4.383      7.249
REMARK INTER + INTRA:          -8.205
REMARK INTER:                  -7.816
REMARK INTRA:                  -0.389
REMARK UNBOUND:                -0.475
REMARK  2 active torsions:
REMARK  status: ('A' for Active; 'I' for Inactive)
REMARK    1  A    between atoms: C_7  and  N_8 
REMARK    2  A    between atoms: C_10  and  C_11 
REMARK       I    between atoms: C_11  and  N_13 
ROOT
HETATM    1  C   UNL     1       2.894   4.499  23.264  0.00  0.00     0.048 C 
HETATM    2  C   UNL     1       3.879   5.359  22.529  0.00  0.00    -0.061 A 
HETATM    3  C   UNL     1       5.122   5.665  23.069  0.00  0.00     0.009 A 
HETATM    4  C   UNL     1       6.020   6.454  22.343  0.00  0.00     0.033 A 
HETATM    5  C   UNL     1       5.717   6.959  21.083  0.00  0.00     0.073 A 
HETATM    6  N   UNL     1       6.644   7.692  20.457  0.00  0.00    -0.218 NA
HETATM    7  C   UNL     1       6.361   8.171  19.248  0.00  0.00     0.200 A 
HETATM    8  N   UNL     1       5.203   8.019  18.615  0.00  0.00    -0.212 NA
HETATM    9  C   UNL     1       4.268   7.286  19.264  0.00  0.00     0.140 A 
HETATM   10  C   UNL     1       4.468   6.686  20.527  0.00  0.00     0.028 A 
HETATM   11  C   UNL     1       3.563   5.862  21.262  0.00  0.00     0.023 A 
ENDROOT
BRANCH   9  12
HETATM   12  C   UNL     1       2.915   7.231  18.610  0.00  0.00     0.274 C 
HETATM   13  O   UNL     1       2.221   8.252  18.590  0.00  0.00    -0.266 OA
HETATM   14  N   UNL     1       2.428   6.071  18.026  0.00  0.00    -0.338 N 
HETATM   15  C   UNL     1       3.061   4.754  17.862  0.00  0.00     0.165 A 
HETATM   16  C   UNL     1       1.069   6.102  17.498  0.00  0.00     0.165 A 
HETATM   17  C   UNL     1       1.986   3.935  17.196  0.00  0.00    -0.032 A 
HETATM   18  C   UNL     1       2.007   2.612  16.783  0.00  0.00     0.011 A 
HETATM   19  C   UNL     1       0.842   4.718  16.997  0.00  0.00    -0.031 A 
HETATM   20  C   UNL     1       0.858   2.083  16.177  0.00  0.00     0.019 A 
HETATM   21  C   UNL     1      -0.285   2.878  15.996  0.00  0.00     0.011 A 
HETATM   22 BR   UNL     1      -1.828   2.141  15.186  0.00  0.00    -0.051 Br
HETATM   23  C   UNL     1      -0.302   4.209  16.405  0.00  0.00     0.028 A 
ENDBRANCH   9  12
BRANCH   7  24
HETATM   24  N   UNL     1       7.343   8.918  18.634  0.00  0.00    -0.271 NA
HETATM   25  H   UNL     1       7.223   8.871  17.632  0.00  0.00     0.127 HD
HETATM   26  H   UNL     1       8.253   8.668  18.997  0.00  0.00     0.127 HD
ENDBRANCH   7  24
TORSDOF 2
ENDMDL
MODEL 5
REMARK VINA RESULT:    -7.044      2.415      2.719
REMARK INTER + INTRA:          -8.136
REMARK INTER:                  -7.647
REMARK INTRA:                  -0.490
REMARK UNBOUND:                -0.475
REMARK  2 active torsions:
REMARK  status: ('A' for Active; 'I' for Inactive)
REMARK    1  A    between atoms: C_7  and  N_8 
REMARK    2  A    between atoms: C_10  and  C_11 
REMARK       I    between atoms: C_11  and  N_13 
ROOT
HETATM    1  C   UNL     1      -0.070   5.515  18.768  0.00  0.00     0.048 C 
HETATM    2  C   UNL     1       1.267   6.190  18.691  0.00  0.00    -0.061 A 
HETATM    3  C   UNL     1       1.525   7.190  17.762  0.00  0.00     0.009 A 
HETATM    4  C   UNL     1       2.779   7.809  17.736  0.00  0.00     0.033 A 
HETATM    5  C   UNL     1       3.801   7.459  18.612  0.00  0.00     0.073 A 
HETATM    6  N   UNL     1       4.962   8.116  18.523  0.00  0.00    -0.218 NA
HETATM    7  C   UNL     1       5.940   7.788  19.366  0.00  0.00     0.200 A 
HETATM    8  N   UNL     1       5.877   6.821  20.274  0.00  0.00    -0.212 NA
HETATM    9  C   UNL     1       4.700   6.155  20.346  0.00  0.00     0.140 A 
HETATM   10  C   UNL     1       3.576   6.442  19.540  0.00  0.00     0.028 A 
HETATM   11  C   UNL     1       2.288   5.830  19.578  0.00  0.00     0.023 A 
ENDROOT
BRANCH   9  12
HETATM   12  C   UNL     1       4.678   4.973  21.276  0.00  0.00     0.274 C 
HETATM   13  O   UNL     1       5.184   3.911  20.902  0.00  0.00    -0.266 OA
HETATM   14  N   UNL     1       4.110   5.044  22.539  0.00  0.00    -0.338 N 
HETATM   15  C   UNL     1       3.501   6.183  23.243  0.00  0.00     0.165 A 
HETATM   16  C   UNL     1       4.062   3.817  23.326  0.00  0.00     0.165 A 
HETATM   17  C   UNL     1       3.043   5.579  24.545  0.00  0.00    -0.032 A 
HETATM   18  C   UNL     1       2.405   6.172  25.623  0.00  0.00     0.011 A 
HETATM   19  C   UNL     1       3.365   4.216  24.580  0.00  0.00    -0.031 A 
HETATM   20  C   UNL     1       2.086   5.376  26.732  0.00  0.00     0.019 A 
HETATM   21  C   UNL     1       2.405   4.009  26.746  0.00  0.00     0.011 A 
HETATM   22 BR   UNL     1       1.955   2.951  28.249  0.00  0.00    -0.051 Br
HETATM   23  C   UNL     1       3.052   3.415  25.665  0.00  0.00     0.028 A 
ENDBRANCH   9  12
BRANCH   7  24
HETATM   24  N   UNL     1       7.120   8.490  19.245  0.00  0.00    -0.271 NA
HETATM   25  H   UNL     1       7.295   8.685  18.270  0.00  0.00     0.127 HD
HETATM   26  H   UNL     1       7.858   8.027  19.758  0.00  0.00     0.127 HD
ENDBRANCH   7  24
TORSDOF 2
ENDMDL
MODEL 6
REMARK VINA RESULT:    -6.969      6.276      8.230
REMARK INTER + INTRA:          -8.055
REMARK INTER:                  -7.836
REMARK INTRA:                  -0.219
REMARK UNBOUND:                -0.475
REMARK  2 active torsions:
REMARK  status: ('A' for Active; 'I' for Inactive)
REMARK    1  A    between atoms: C_7  and  N_8 
REMARK    2  A    between atoms: C_10  and  C_11 
REMARK       I    between atoms: C_11  and  N_13 
ROOT
HETATM    1  C   UNL     1       3.443  10.754  23.799  0.00  0.00     0.048 C 
HETATM    2  C   UNL     1       2.147  10.885  24.542  0.00  0.00    -0.061 A 
HETATM    3  C   UNL     1       1.264  11.926  24.287  0.00  0.00     0.009 A 
HETATM    4  C   UNL     1       0.056  12.001  24.988  0.00  0.00     0.033 A 
HETATM    5  C   UNL     1      -0.306  11.064  25.950  0.00  0.00     0.073 A 
HETATM    6  N   UNL     1      -1.488  11.209  26.559  0.00  0.00    -0.218 NA
HETATM    7  C   UNL     1      -1.841  10.309  27.475  0.00  0.00     0.200 A 
HETATM    8  N   UNL     1      -1.092   9.288  27.875  0.00  0.00    -0.212 NA
HETATM    9  C   UNL     1       0.108   9.160  27.260  0.00  0.00     0.140 A 
HETATM   10  C   UNL     1       0.572  10.021  26.242  0.00  0.00     0.028 A 
HETATM   11  C   UNL     1       1.794   9.936  25.508  0.00  0.00     0.023 A 
ENDROOT
BRANCH   9  12
HETATM   12  C   UNL     1       1.009   8.089  27.811  0.00  0.00     0.274 C 
HETATM   13  O   UNL     1       2.036   8.423  28.408  0.00  0.00    -0.266 OA
HETATM   14  N   UNL     1       0.717   6.740  27.670  0.00  0.00    -0.338 N 
HETATM   15  C   UNL     1      -0.449   6.080  27.064  0.00  0.00     0.165 A 
HETATM   16  C   UNL     1       1.701   5.783  28.162  0.00  0.00     0.165 A 
HETATM   17  C   UNL     1      -0.123   4.615  27.196  0.00  0.00    -0.032 A 
HETATM   18  C   UNL     1      -0.857   3.505  26.809  0.00  0.00     0.011 A 
HETATM   19  C   UNL     1       1.119   4.455  27.823  0.00  0.00    -0.031 A 
HETATM   20  C   UNL     1      -0.322   2.232  27.052  0.00  0.00     0.019 A 
HETATM   21  C   UNL     1       0.930   2.089  27.672  0.00  0.00     0.011 A 
HETATM   22 BR   UNL     1       1.638   0.362  27.980  0.00  0.00    -0.051 Br
HETATM   23  C   UNL     1       1.664   3.205  28.066  0.00  0.00     0.028 A 
ENDBRANCH   9  12
BRANCH   7  24
HETATM   24  N   UNL     1      -3.067  10.490  28.077  0.00  0.00    -0.271 NA
HETATM   25  H   UNL     1      -3.090  11.394  28.527  0.00  0.00     0.127 HD
HETATM   26  H   UNL     1      -3.299   9.690  28.651  0.00  0.00     0.127 HD
ENDBRANCH   7  24
TORSDOF 2
ENDMDL
MODEL 7
REMARK VINA RESULT:    -6.829      3.156      3.949
REMARK INTER + INTRA:          -7.902
REMARK INTER:                  -7.443
REMARK INTRA:                  -0.459
REMARK UNBOUND:                -0.475
REMARK  2 active torsions:
REMARK  status: ('A' for Active; 'I' for Inactive)
REMARK    1  A    between atoms: C_7  and  N_8 
REMARK    2  A    between atoms: C_10  and  C_11 
REMARK       I    between atoms: C_11  and  N_13 
ROOT
HETATM    1  C   UNL     1       2.539   2.473  17.434  0.00  0.00     0.048 C 
HETATM    2  C   UNL     1       2.286   3.948  17.335  0.00  0.00    -0.061 A 
HETATM    3  C   UNL     1       1.356   4.469  16.444  0.00  0.00     0.009 A 
HETATM    4  C   UNL     1       1.135   5.849  16.396  0.00  0.00     0.033 A 
HETATM    5  C   UNL     1       1.821   6.742  17.213  0.00  0.00     0.073 A 
HETATM    6  N   UNL     1       1.533   8.043  17.108  0.00  0.00    -0.218 NA
HETATM    7  C   UNL     1       2.184   8.900  17.894  0.00  0.00     0.200 A 
HETATM    8  N   UNL     1       3.139   8.574  18.757  0.00  0.00    -0.212 NA
HETATM    9  C   UNL     1       3.430   7.255  18.845  0.00  0.00     0.140 A 
HETATM   10  C   UNL     1       2.778   6.248  18.100  0.00  0.00     0.028 A 
HETATM   11  C   UNL     1       2.983   4.837  18.162  0.00  0.00     0.023 A 
ENDROOT
BRANCH   9  12
HETATM   12  C   UNL     1       4.604   6.905  19.718  0.00  0.00     0.274 C 
HETATM   13  O   UNL     1       5.744   7.150  19.311  0.00  0.00    -0.266 OA
HETATM   14  N   UNL     1       4.442   6.320  20.966  0.00  0.00    -0.338 N 
HETATM   15  C   UNL     1       3.216   5.981  21.702  0.00  0.00     0.165 A 
HETATM   16  C   UNL     1       5.648   5.941  21.692  0.00  0.00     0.165 A 
HETATM   17  C   UNL     1       3.736   5.336  22.960  0.00  0.00    -0.032 A 
HETATM   18  C   UNL     1       3.044   4.820  24.044  0.00  0.00     0.011 A 
HETATM   19  C   UNL     1       5.136   5.312  22.942  0.00  0.00    -0.031 A 
HETATM   20  C   UNL     1       3.777   4.270  25.105  0.00  0.00     0.019 A 
HETATM   21  C   UNL     1       5.181   4.242  25.065  0.00  0.00     0.011 A 
HETATM   22 BR   UNL     1       6.150   3.485  26.504  0.00  0.00    -0.051 Br
HETATM   23  C   UNL     1       5.875   4.768  23.979  0.00  0.00     0.028 A 
ENDBRANCH   9  12
BRANCH   7  24
HETATM   24  N   UNL     1       1.856  10.232  17.758  0.00  0.00    -0.271 NA
HETATM   25  H   UNL     1       1.588  10.415  16.802  0.00  0.00     0.127 HD
HETATM   26  H   UNL     1       2.586  10.814  18.147  0.00  0.00     0.127 HD
ENDBRANCH   7  24
TORSDOF 2
ENDMDL
MODEL 8
REMARK VINA RESULT:    -6.780      3.887      7.094
REMARK INTER + INTRA:          -7.849
REMARK INTER:                  -7.375
REMARK INTRA:                  -0.475
REMARK UNBOUND:                -0.475
REMARK  2 active torsions:
REMARK  status: ('A' for Active; 'I' for Inactive)
REMARK    1  A    between atoms: C_7  and  N_8 
REMARK    2  A    between atoms: C_10  and  C_11 
REMARK       I    between atoms: C_11  and  N_13 
ROOT
HETATM    1  C   UNL     1       2.221   6.184  24.285  0.00  0.00     0.048 C 
HETATM    2  C   UNL     1       3.091   6.889  23.288  0.00  0.00    -0.061 A 
HETATM    3  C   UNL     1       3.469   8.214  23.460  0.00  0.00     0.009 A 
HETATM    4  C   UNL     1       4.298   8.830  22.517  0.00  0.00     0.033 A 
HETATM    5  C   UNL     1       4.767   8.162  21.389  0.00  0.00     0.073 A 
HETATM    6  N   UNL     1       5.567   8.827  20.550  0.00  0.00    -0.218 NA
HETATM    7  C   UNL     1       6.024   8.189  19.473  0.00  0.00     0.200 A 
HETATM    8  N   UNL     1       5.714   6.943  19.133  0.00  0.00    -0.212 NA
HETATM    9  C   UNL     1       4.893   6.285  19.984  0.00  0.00     0.140 A 
HETATM   10  C   UNL     1       4.384   6.838  21.180  0.00  0.00     0.028 A 
HETATM   11  C   UNL     1       3.556   6.207  22.157  0.00  0.00     0.023 A 
ENDROOT
BRANCH   9  12
HETATM   12  C   UNL     1       4.435   4.927  19.527  0.00  0.00     0.274 C 
HETATM   13  O   UNL     1       5.040   3.928  19.926  0.00  0.00    -0.266 OA
HETATM   14  N   UNL     1       3.352   4.768  18.674  0.00  0.00    -0.338 N 
HETATM   15  C   UNL     1       2.437   5.768  18.106  0.00  0.00     0.165 A 
HETATM   16  C   UNL     1       3.046   3.416  18.221  0.00  0.00     0.165 A 
HETATM   17  C   UNL     1       1.523   4.945  17.235  0.00  0.00    -0.032 A 
HETATM   18  C   UNL     1       0.450   5.340  16.452  0.00  0.00     0.011 A 
HETATM   19  C   UNL     1       1.887   3.594  17.304  0.00  0.00    -0.031 A 
HETATM   20  C   UNL     1      -0.247   4.360  15.731  0.00  0.00     0.019 A 
HETATM   21  C   UNL     1       0.138   3.011  15.801  0.00  0.00     0.011 A 
HETATM   22 BR   UNL     1      -0.811   1.708  14.810  0.00  0.00    -0.051 Br
HETATM   23  C   UNL     1       1.212   2.615  16.594  0.00  0.00     0.028 A 
ENDBRANCH   9  12
BRANCH   7  24
HETATM   24  N   UNL     1       6.849   8.907  18.634  0.00  0.00    -0.271 NA
HETATM   25  H   UNL     1       6.742   8.567  17.689  0.00  0.00     0.127 HD
HETATM   26  H   UNL     1       7.789   8.935  19.006  0.00  0.00     0.127 HD
ENDBRANCH   7  24
TORSDOF 2
ENDMDL
MODEL 9
REMARK VINA RESULT:    -6.780      4.149      8.266
REMARK INTER + INTRA:          -7.849
REMARK INTER:                  -7.391
REMARK INTRA:                  -0.458
REMARK UNBOUND:                -0.475
REMARK  2 active torsions:
REMARK  status: ('A' for Active; 'I' for Inactive)
REMARK    1  A    between atoms: C_7  and  N_8 
REMARK    2  A    between atoms: C_10  and  C_11 
REMARK       I    between atoms: C_11  and  N_13 
ROOT
HETATM    1  C   UNL     1       4.075   9.220  30.051  0.00  0.00     0.048 C 
HETATM    2  C   UNL     1       3.069   8.250  29.509  0.00  0.00    -0.061 A 
HETATM    3  C   UNL     1       2.576   7.205  30.281  0.00  0.00     0.009 A 
HETATM    4  C   UNL     1       1.623   6.334  29.745  0.00  0.00     0.033 A 
HETATM    5  C   UNL     1       1.139   6.466  28.447  0.00  0.00     0.073 A 
HETATM    6  N   UNL     1       0.218   5.594  28.025  0.00  0.00    -0.218 NA
HETATM    7  C   UNL     1      -0.252   5.722  26.785  0.00  0.00     0.200 A 
HETATM    8  N   UNL     1       0.152   6.628  25.902  0.00  0.00    -0.212 NA
HETATM    9  C   UNL     1       1.094   7.496  26.337  0.00  0.00     0.140 A 
HETATM   10  C   UNL     1       1.634   7.492  27.642  0.00  0.00     0.028 A 
HETATM   11  C   UNL     1       2.590   8.393  28.202  0.00  0.00     0.023 A 
ENDROOT
BRANCH   9  12
HETATM   12  C   UNL     1       1.649   8.430  25.296  0.00  0.00     0.274 C 
HETATM   13  O   UNL     1       1.200   9.577  25.224  0.00  0.00    -0.266 OA
HETATM   14  N   UNL     1       2.651   8.039  24.419  0.00  0.00    -0.338 N 
HETATM   15  C   UNL     1       3.389   6.771  24.328  0.00  0.00     0.165 A 
HETATM   16  C   UNL     1       3.055   8.990  23.391  0.00  0.00     0.165 A 
HETATM   17  C   UNL     1       4.294   6.983  23.142  0.00  0.00    -0.032 A 
HETATM   18  C   UNL     1       5.233   6.133  22.578  0.00  0.00     0.011 A 
HETATM   19  C   UNL     1       4.089   8.261  22.607  0.00  0.00    -0.031 A 
HETATM   20  C   UNL     1       5.955   6.581  21.463  0.00  0.00     0.019 A 
HETATM   21  C   UNL     1       5.729   7.861  20.932  0.00  0.00     0.011 A 
HETATM   22 BR   UNL     1       6.708   8.440  19.420  0.00  0.00    -0.051 Br
HETATM   23  C   UNL     1       4.791   8.716  21.503  0.00  0.00     0.028 A 
ENDBRANCH   9  12
BRANCH   7  24
HETATM   24  N   UNL     1      -1.204   4.807  26.388  0.00  0.00    -0.271 NA
HETATM   25  H   UNL     1      -1.320   4.110  27.110  0.00  0.00     0.127 HD
HETATM   26  H   UNL     1      -1.000   4.470  25.457  0.00  0.00     0.127 HD
ENDBRANCH   7  24
TORSDOF 2
ENDMDL
