MODEL 1
REMARK VINA RESULT:    -8.357      0.000      0.000
REMARK INTER + INTRA:         -11.518
REMARK INTER:                 -10.452
REMARK INTRA:                  -1.066
REMARK UNBOUND:                -0.475
REMARK  6 active torsions:
REMARK  status: ('A' for Active; 'I' for Inactive)
REMARK    1  A    between atoms: C_2  and  C_3 
REMARK    2  A    between atoms: C_3  and  C_5 
REMARK    3  A    between atoms: C_12  and  C_16 
REMARK    4  A    between atoms: C_13  and  O_15 
REMARK       I    between atoms: C_16  and  N_18 
REMARK    5  A    between atoms: N_18  and  C_20 
REMARK    6  A    between atoms: C_23  and  N_26 
ROOT
HETATM    1  C   UNL     1      12.384  12.138  20.843  0.00  0.00     0.071 A 
HETATM    2  N   UNL     1      13.649  12.507  20.577  0.00  0.00    -0.178 NA
HETATM    3  N   UNL     1      13.595  13.845  20.537  0.00  0.00    -0.277 N 
HETATM    4  H   UNL     1      14.448  14.347  20.324  0.00  0.00     0.189 HD
HETATM    5  C   UNL     1      11.535  13.276  21.017  0.00  0.00     0.020 A 
HETATM    6  C   UNL     1      12.356  14.368  20.786  0.00  0.00     0.065 A 
HETATM    7  C   UNL     1      10.184  13.516  21.350  0.00  0.00     0.035 C 
HETATM    8  C   UNL     1       9.676  14.839  21.413  0.00  0.00     0.066 C 
HETATM    9  C   UNL     1      10.524  15.887  21.043  0.00  0.00     0.083 C 
HETATM   10  C   UNL     1      11.890  15.685  20.792  0.00  0.00     0.069 C 
ENDROOT
BRANCH   8  11
HETATM   11  C   UNL     1       8.225  14.946  21.776  0.00  0.00     0.260 C 
HETATM   12  O   UNL     1       7.500  15.261  20.825  0.00  0.00    -0.267 OA
HETATM   13  N   UNL     1       7.722  14.691  23.075  0.00  0.00    -0.318 N 
HETATM   14  C   UNL     1       8.544  14.510  24.273  0.00  0.00     0.159 C 
BRANCH  13  15
HETATM   15  C   UNL     1       6.291  14.607  23.279  0.00  0.00     0.037 A 
HETATM   16  C   UNL     1       5.549  15.730  23.648  0.00  0.00     0.032 A 
HETATM   17  C   UNL     1       4.166  15.651  23.877  0.00  0.00     0.031 A 
HETATM   18  C   UNL     1       3.455  14.451  23.765  0.00  0.00     0.030 A 
HETATM   19  C   UNL     1       4.196  13.344  23.329  0.00  0.00     0.031 A 
HETATM   20  C   UNL     1       5.583  13.417  23.082  0.00  0.00     0.032 A 
BRANCH  18  21
HETATM   21  N   UNL     1       2.126  14.356  24.120  0.00  0.00    -0.377 N 
HETATM   22  C   UNL     1       1.015  14.360  23.156  0.00  0.00     0.149 C 
HETATM   23  C   UNL     1      -0.004  13.272  23.539  0.00  0.00     0.187 C 
HETATM   24  O   UNL     1      -0.465  13.426  24.893  0.00  0.00    -0.388 OA
HETATM   25  C   UNL     1       0.645  13.356  25.804  0.00  0.00     0.187 C 
HETATM   26  C   UNL     1       1.680  14.457  25.522  0.00  0.00     0.149 C 
ENDBRANCH  18  21
ENDBRANCH  13  15
ENDBRANCH   8  11
BRANCH   9  27
HETATM   27  O   UNL     1      10.095  17.165  20.811  0.00  0.00    -0.360 OA
HETATM   28  H   UNL     1       9.137  17.121  20.636  0.00  0.00     0.217 HD
ENDBRANCH   9  27
BRANCH   1  29
HETATM   29  C   UNL     1      12.020  10.674  20.955  0.00  0.00     0.036 C 
HETATM   30  C   UNL     1      13.211   9.747  20.636  0.00  0.00     0.016 C 
BRANCH  29  31
HETATM   31  C   UNL     1      11.467  10.310  22.347  0.00  0.00     0.006 C 
HETATM   32  C   UNL     1      12.396  10.667  23.499  0.00  0.00     0.006 C 
ENDBRANCH  29  31
ENDBRANCH   1  29
TORSDOF 6
ENDMDL
MODEL 2
REMARK VINA RESULT:    -8.223      2.630      4.053
REMARK INTER + INTRA:         -11.343
REMARK INTER:                 -10.538
REMARK INTRA:                  -0.805
REMARK UNBOUND:                -0.475
REMARK  6 active torsions:
REMARK  status: ('A' for Active; 'I' for Inactive)
REMARK    1  A    between atoms: C_2  and  C_3 
REMARK    2  A    between atoms: C_3  and  C_5 
REMARK    3  A    between atoms: C_12  and  C_16 
REMARK    4  A    between atoms: C_13  and  O_15 
REMARK       I    between atoms: C_16  and  N_18 
REMARK    5  A    between atoms: N_18  and  C_20 
REMARK    6  A    between atoms: C_23  and  N_26 
ROOT
HETATM    1  C   UNL     1      10.679  14.684  22.715  0.00  0.00     0.071 A 
HETATM    2  N   UNL     1      11.843  14.987  23.314  0.00  0.00    -0.178 NA
HETATM    3  N   UNL     1      11.531  15.049  24.615  0.00  0.00    -0.277 N 
HETATM    4  H   UNL     1      12.267  15.292  25.267  0.00  0.00     0.189 HD
HETATM    5  C   UNL     1       9.630  14.511  23.671  0.00  0.00     0.020 A 
HETATM    6  C   UNL     1      10.220  14.782  24.895  0.00  0.00     0.065 A 
HETATM    7  C   UNL     1       8.265  14.151  23.654  0.00  0.00     0.035 C 
HETATM    8  C   UNL     1       7.512  14.100  24.856  0.00  0.00     0.066 C 
HETATM    9  C   UNL     1       8.135  14.509  26.038  0.00  0.00     0.083 C 
HETATM   10  C   UNL     1       9.509  14.789  26.097  0.00  0.00     0.069 C 
ENDROOT
BRANCH   8  11
HETATM   11  C   UNL     1       6.075  13.705  24.690  0.00  0.00     0.260 C 
HETATM   12  O   UNL     1       5.835  12.549  25.054  0.00  0.00    -0.267 OA
HETATM   13  N   UNL     1       5.078  14.576  24.186  0.00  0.00    -0.318 N 
HETATM   14  C   UNL     1       5.335  15.875  23.562  0.00  0.00     0.159 C 
BRANCH  13  15
HETATM   15  C   UNL     1       3.686  14.183  24.266  0.00  0.00     0.037 A 
HETATM   16  C   UNL     1       2.893  14.560  25.350  0.00  0.00     0.032 A 
HETATM   17  C   UNL     1       1.551  14.159  25.450  0.00  0.00     0.031 A 
HETATM   18  C   UNL     1       0.935  13.353  24.485  0.00  0.00     0.030 A 
HETATM   19  C   UNL     1       1.720  13.037  23.368  0.00  0.00     0.031 A 
HETATM   20  C   UNL     1       3.064  13.448  23.251  0.00  0.00     0.032 A 
BRANCH  18  21
HETATM   21  N   UNL     1      -0.339  12.856  24.658  0.00  0.00    -0.377 N 
HETATM   22  C   UNL     1      -1.370  12.854  23.608  0.00  0.00     0.149 C 
HETATM   23  C   UNL     1      -2.091  11.494  23.596  0.00  0.00     0.187 C 
HETATM   24  O   UNL     1      -2.635  11.167  24.887  0.00  0.00    -0.388 OA
HETATM   25  C   UNL     1      -1.586  11.121  25.869  0.00  0.00     0.187 C 
HETATM   26  C   UNL     1      -0.858  12.470  25.983  0.00  0.00     0.149 C 
ENDBRANCH  18  21
ENDBRANCH  13  15
ENDBRANCH   8  11
BRANCH   9  27
HETATM   27  O   UNL     1       7.463  14.754  27.205  0.00  0.00    -0.360 OA
HETATM   28  H   UNL     1       7.825  14.150  27.879  0.00  0.00     0.217 HD
ENDBRANCH   9  27
BRANCH   1  29
HETATM   29  C   UNL     1      10.607  14.537  21.211  0.00  0.00     0.036 C 
HETATM   30  C   UNL     1      10.865  15.870  20.478  0.00  0.00     0.016 C 
BRANCH  29  31
HETATM   31  C   UNL     1      11.589  13.478  20.675  0.00  0.00     0.006 C 
HETATM   32  C   UNL     1      10.916  12.285  20.009  0.00  0.00     0.006 C 
ENDBRANCH  29  31
ENDBRANCH   1  29
TORSDOF 6
ENDMDL
MODEL 3
REMARK VINA RESULT:    -8.152      2.708      3.294
REMARK INTER + INTRA:         -11.248
REMARK INTER:                 -10.776
REMARK INTRA:                  -0.472
REMARK UNBOUND:                -0.475
REMARK  6 active torsions:
REMARK  status: ('A' for Active; 'I' for Inactive)
REMARK    1  A    between atoms: C_2  and  C_3 
REMARK    2  A    between atoms: C_3  and  C_5 
REMARK    3  A    between atoms: C_12  and  C_16 
REMARK    4  A    between atoms: C_13  and  O_15 
REMARK       I    between atoms: C_16  and  N_18 
REMARK    5  A    between atoms: N_18  and  C_20 
REMARK    6  A    between atoms: C_23  and  N_26 
ROOT
HETATM    1  C   UNL     1      12.319  14.079  25.266  0.00  0.00     0.071 A 
HETATM    2  N   UNL     1      13.424  14.708  24.832  0.00  0.00    -0.178 NA
HETATM    3  N   UNL     1      12.976  15.518  23.863  0.00  0.00    -0.277 N 
HETATM    4  H   UNL     1      13.654  16.084  23.368  0.00  0.00     0.189 HD
HETATM    5  C   UNL     1      11.151  14.542  24.581  0.00  0.00     0.020 A 
HETATM    6  C   UNL     1      11.626  15.461  23.658  0.00  0.00     0.065 A 
HETATM    7  C   UNL     1       9.760  14.307  24.634  0.00  0.00     0.035 C 
HETATM    8  C   UNL     1       8.877  14.970  23.743  0.00  0.00     0.066 C 
HETATM    9  C   UNL     1       9.433  15.786  22.753  0.00  0.00     0.083 C 
HETATM   10  C   UNL     1      10.800  16.103  22.732  0.00  0.00     0.069 C 
ENDROOT
BRANCH   8  11
HETATM   11  C   UNL     1       7.428  14.624  23.910  0.00  0.00     0.260 C 
HETATM   12  O   UNL     1       6.909  15.136  24.908  0.00  0.00    -0.267 OA
HETATM   13  N   UNL     1       6.709  13.808  23.002  0.00  0.00    -0.318 N 
HETATM   14  C   UNL     1       7.309  13.023  21.923  0.00  0.00     0.159 C 
BRANCH  13  15
HETATM   15  C   UNL     1       5.270  13.708  23.124  0.00  0.00     0.037 A 
HETATM   16  C   UNL     1       4.496  14.820  23.458  0.00  0.00     0.032 A 
HETATM   17  C   UNL     1       3.103  14.726  23.607  0.00  0.00     0.031 A 
HETATM   18  C   UNL     1       2.412  13.519  23.446  0.00  0.00     0.030 A 
HETATM   19  C   UNL     1       3.189  12.423  23.046  0.00  0.00     0.031 A 
HETATM   20  C   UNL     1       4.587  12.512  22.878  0.00  0.00     0.032 A 
BRANCH  18  21
HETATM   21  N   UNL     1       1.067  13.408  23.725  0.00  0.00    -0.377 N 
HETATM   22  C   UNL     1       0.026  13.232  22.700  0.00  0.00     0.149 C 
HETATM   23  C   UNL     1      -0.974  12.157  23.158  0.00  0.00     0.187 C 
HETATM   24  O   UNL     1      -1.534  12.463  24.447  0.00  0.00    -0.388 OA
HETATM   25  C   UNL     1      -0.488  12.565  25.429  0.00  0.00     0.187 C 
HETATM   26  C   UNL     1       0.520  13.669  25.070  0.00  0.00     0.149 C 
ENDBRANCH  18  21
ENDBRANCH  13  15
ENDBRANCH   8  11
BRANCH   9  27
HETATM   27  O   UNL     1       8.729  16.270  21.685  0.00  0.00    -0.360 OA
HETATM   28  H   UNL     1       9.317  16.882  21.205  0.00  0.00     0.217 HD
ENDBRANCH   9  27
BRANCH   1  29
HETATM   29  C   UNL     1      12.407  13.049  26.370  0.00  0.00     0.036 C 
HETATM   30  C   UNL     1      13.593  12.082  26.176  0.00  0.00     0.016 C 
BRANCH  29  31
HETATM   31  C   UNL     1      12.515  13.691  27.767  0.00  0.00     0.006 C 
HETATM   32  C   UNL     1      11.469  14.763  28.042  0.00  0.00     0.006 C 
ENDBRANCH  29  31
ENDBRANCH   1  29
TORSDOF 6
ENDMDL
MODEL 4
REMARK VINA RESULT:    -8.094      2.088      2.691
REMARK INTER + INTRA:         -11.172
REMARK INTER:                 -10.293
REMARK INTRA:                  -0.879
REMARK UNBOUND:                -0.475
REMARK  6 active torsions:
REMARK  status: ('A' for Active; 'I' for Inactive)
REMARK    1  A    between atoms: C_2  and  C_3 
REMARK    2  A    between atoms: C_3  and  C_5 
REMARK    3  A    between atoms: C_12  and  C_16 
REMARK    4  A    between atoms: C_13  and  O_15 
REMARK       I    between atoms: C_16  and  N_18 
REMARK    5  A    between atoms: N_18  and  C_20 
REMARK    6  A    between atoms: C_23  and  N_26 
ROOT
HETATM    1  C   UNL     1      12.448  12.788  22.569  0.00  0.00     0.071 A 
HETATM    2  N   UNL     1      13.607  13.217  23.095  0.00  0.00    -0.178 NA
HETATM    3  N   UNL     1      13.231  13.982  24.128  0.00  0.00    -0.277 N 
HETATM    4  H   UNL     1      13.956  14.438  24.669  0.00  0.00     0.189 HD
HETATM    5  C   UNL     1      11.327  13.261  23.321  0.00  0.00     0.020 A 
HETATM    6  C   UNL     1      11.878  14.055  24.314  0.00  0.00     0.065 A 
HETATM    7  C   UNL     1       9.923  13.109  23.291  0.00  0.00     0.035 C 
HETATM    8  C   UNL     1       9.100  13.778  24.234  0.00  0.00     0.066 C 
HETATM    9  C   UNL     1       9.710  14.663  25.127  0.00  0.00     0.083 C 
HETATM   10  C   UNL     1      11.105  14.768  25.234  0.00  0.00     0.069 C 
ENDROOT
BRANCH   8  11
HETATM   11  C   UNL     1       7.630  13.527  24.084  0.00  0.00     0.260 C 
HETATM   12  O   UNL     1       7.210  12.606  24.793  0.00  0.00    -0.267 OA
HETATM   13  N   UNL     1       6.790  14.285  23.231  0.00  0.00    -0.318 N 
HETATM   14  C   UNL     1       7.257  15.247  22.232  0.00  0.00     0.159 C 
BRANCH  13  15
HETATM   15  C   UNL     1       5.354  14.116  23.314  0.00  0.00     0.037 A 
HETATM   16  C   UNL     1       4.534  15.143  23.783  0.00  0.00     0.032 A 
HETATM   17  C   UNL     1       3.145  14.978  23.896  0.00  0.00     0.031 A 
HETATM   18  C   UNL     1       2.502  13.780  23.561  0.00  0.00     0.030 A 
HETATM   19  C   UNL     1       3.325  12.779  23.028  0.00  0.00     0.031 A 
HETATM   20  C   UNL     1       4.720  12.941  22.897  0.00  0.00     0.032 A 
BRANCH  18  21
HETATM   21  N   UNL     1       1.159  13.583  23.800  0.00  0.00    -0.377 N 
HETATM   22  C   UNL     1       0.164  13.337  22.745  0.00  0.00     0.149 C 
HETATM   23  C   UNL     1      -0.778  12.200  23.179  0.00  0.00     0.187 C 
HETATM   24  O   UNL     1      -1.395  12.474  24.449  0.00  0.00    -0.388 OA
HETATM   25  C   UNL     1      -0.389  12.647  25.461  0.00  0.00     0.187 C 
HETATM   26  C   UNL     1       0.556  13.812  25.126  0.00  0.00     0.149 C 
ENDBRANCH  18  21
ENDBRANCH  13  15
ENDBRANCH   8  11
BRANCH   9  27
HETATM   27  O   UNL     1       9.020  15.555  25.902  0.00  0.00    -0.360 OA
HETATM   28  H   UNL     1       8.538  16.150  25.298  0.00  0.00     0.217 HD
ENDBRANCH   9  27
BRANCH   1  29
HETATM   29  C   UNL     1      12.444  11.893  21.349  0.00  0.00     0.036 C 
HETATM   30  C   UNL     1      11.677  10.577  21.590  0.00  0.00     0.016 C 
BRANCH  29  31
HETATM   31  C   UNL     1      11.854  12.591  20.108  0.00  0.00     0.006 C 
HETATM   32  C   UNL     1      10.451  12.128  19.742  0.00  0.00     0.006 C 
ENDBRANCH  29  31
ENDBRANCH   1  29
TORSDOF 6
ENDMDL
MODEL 5
REMARK VINA RESULT:    -8.022      2.302      3.337
REMARK INTER + INTRA:         -11.076
REMARK INTER:                  -9.962
REMARK INTRA:                  -1.114
REMARK UNBOUND:                -0.475
REMARK  6 active torsions:
REMARK  status: ('A' for Active; 'I' for Inactive)
REMARK    1  A    between atoms: C_2  and  C_3 
REMARK    2  A    between atoms: C_3  and  C_5 
REMARK    3  A    between atoms: C_12  and  C_16 
REMARK    4  A    between atoms: C_13  and  O_15 
REMARK       I    between atoms: C_16  and  N_18 
REMARK    5  A    between atoms: N_18  and  C_20 
REMARK    6  A    between atoms: C_23  and  N_26 
ROOT
HETATM    1  C   UNL     1      11.070  12.734  24.144  0.00  0.00     0.071 A 
HETATM    2  N   UNL     1      12.211  13.404  23.912  0.00  0.00    -0.178 NA
HETATM    3  N   UNL     1      11.821  14.476  23.211  0.00  0.00    -0.277 N 
HETATM    4  H   UNL     1      12.535  15.125  22.901  0.00  0.00     0.189 HD
HETATM    5  C   UNL     1       9.939  13.431  23.613  0.00  0.00     0.020 A 
HETATM    6  C   UNL     1      10.474  14.549  22.992  0.00  0.00     0.065 A 
HETATM    7  C   UNL     1       8.538  13.261  23.590  0.00  0.00     0.035 C 
HETATM    8  C   UNL     1       7.704  14.194  22.921  0.00  0.00     0.066 C 
HETATM    9  C   UNL     1       8.317  15.228  22.206  0.00  0.00     0.083 C 
HETATM   10  C   UNL     1       9.697  15.468  22.283  0.00  0.00     0.069 C 
ENDROOT
BRANCH   8  11
HETATM   11  C   UNL     1       6.237  13.889  22.975  0.00  0.00     0.260 C 
HETATM   12  O   UNL     1       5.838  13.211  22.022  0.00  0.00    -0.267 OA
HETATM   13  N   UNL     1       5.388  14.314  24.026  0.00  0.00    -0.318 N 
HETATM   14  C   UNL     1       5.757  15.274  25.068  0.00  0.00     0.159 C 
BRANCH  13  15
HETATM   15  C   UNL     1       4.040  13.791  24.106  0.00  0.00     0.037 A 
HETATM   16  C   UNL     1       3.788  12.529  24.646  0.00  0.00     0.032 A 
HETATM   17  C   UNL     1       2.488  12.002  24.700  0.00  0.00     0.031 A 
HETATM   18  C   UNL     1       1.376  12.696  24.208  0.00  0.00     0.030 A 
HETATM   19  C   UNL     1       1.630  13.988  23.730  0.00  0.00     0.031 A 
HETATM   20  C   UNL     1       2.931  14.532  23.686  0.00  0.00     0.032 A 
BRANCH  18  21
HETATM   21  N   UNL     1       0.127  12.116  24.143  0.00  0.00    -0.377 N 
HETATM   22  C   UNL     1      -0.351  11.086  25.080  0.00  0.00     0.149 C 
HETATM   23  C   UNL     1      -1.795  11.405  25.504  0.00  0.00     0.187 C 
HETATM   24  O   UNL     1      -2.666  11.546  24.368  0.00  0.00    -0.388 OA
HETATM   25  C   UNL     1      -2.196  12.602  23.513  0.00  0.00     0.187 C 
HETATM   26  C   UNL     1      -0.776  12.322  22.996  0.00  0.00     0.149 C 
ENDBRANCH  18  21
ENDBRANCH  13  15
ENDBRANCH   8  11
BRANCH   9  27
HETATM   27  O   UNL     1       7.656  16.031  21.316  0.00  0.00    -0.360 OA
HETATM   28  H   UNL     1       6.868  15.542  21.017  0.00  0.00     0.217 HD
ENDBRANCH   9  27
BRANCH   1  29
HETATM   29  C   UNL     1      11.089  11.430  24.910  0.00  0.00     0.036 C 
HETATM   30  C   UNL     1      10.327  11.524  26.248  0.00  0.00     0.016 C 
BRANCH  29  31
HETATM   31  C   UNL     1      10.510  10.258  24.092  0.00  0.00     0.006 C 
HETATM   32  C   UNL     1       9.220   9.681  24.659  0.00  0.00     0.006 C 
ENDBRANCH  29  31
ENDBRANCH   1  29
TORSDOF 6
ENDMDL
MODEL 6
REMARK VINA RESULT:    -7.937      1.585      2.182
REMARK INTER + INTRA:         -10.964
REMARK INTER:                 -10.421
REMARK INTRA:                  -0.543
REMARK UNBOUND:                -0.475
REMARK  6 active torsions:
REMARK  status: ('A' for Active; 'I' for Inactive)
REMARK    1  A    between atoms: C_2  and  C_3 
REMARK    2  A    between atoms: C_3  and  C_5 
REMARK    3  A    between atoms: C_12  and  C_16 
REMARK    4  A    between atoms: C_13  and  O_15 
REMARK       I    between atoms: C_16  and  N_18 
REMARK    5  A    between atoms: N_18  and  C_20 
REMARK    6  A    between atoms: C_23  and  N_26 
ROOT
HETATM    1  C   UNL     1      12.257  12.330  20.942  0.00  0.00     0.071 A 
HETATM    2  N   UNL     1      13.233  13.084  20.409  0.00  0.00    -0.178 NA
HETATM    3  N   UNL     1      12.719  14.321  20.398  0.00  0.00    -0.277 N 
HETATM    4  H   UNL     1      13.284  15.065  20.008  0.00  0.00     0.189 HD
HETATM    5  C   UNL     1      11.127  13.126  21.312  0.00  0.00     0.020 A 
HETATM    6  C   UNL     1      11.458  14.413  20.918  0.00  0.00     0.065 A 
HETATM    7  C   UNL     1       9.878  12.921  21.937  0.00  0.00     0.035 C 
HETATM    8  C   UNL     1       8.974  13.999  22.126  0.00  0.00     0.066 C 
HETATM    9  C   UNL     1       9.316  15.244  21.591  0.00  0.00     0.083 C 
HETATM   10  C   UNL     1      10.583  15.495  21.043  0.00  0.00     0.069 C 
ENDROOT
BRANCH   8  11
HETATM   11  C   UNL     1       7.685  13.637  22.800  0.00  0.00     0.260 C 
HETATM   12  O   UNL     1       7.540  14.166  23.908  0.00  0.00    -0.267 OA
HETATM   13  N   UNL     1       6.710  12.788  22.220  0.00  0.00    -0.318 N 
HETATM   14  C   UNL     1       6.908  11.984  21.013  0.00  0.00     0.159 C 
BRANCH  13  15
HETATM   15  C   UNL     1       5.409  12.670  22.845  0.00  0.00     0.037 A 
HETATM   16  C   UNL     1       4.933  11.436  23.289  0.00  0.00     0.032 A 
HETATM   17  C   UNL     1       3.661  11.307  23.868  0.00  0.00     0.031 A 
HETATM   18  C   UNL     1       2.793  12.395  24.023  0.00  0.00     0.030 A 
HETATM   19  C   UNL     1       3.307  13.640  23.636  0.00  0.00     0.031 A 
HETATM   20  C   UNL     1       4.590  13.781  23.067  0.00  0.00     0.032 A 
BRANCH  18  21
HETATM   21  N   UNL     1       1.499  12.236  24.469  0.00  0.00    -0.377 N 
HETATM   22  C   UNL     1       0.682  13.325  25.027  0.00  0.00     0.149 C 
HETATM   23  C   UNL     1      -0.741  13.254  24.444  0.00  0.00     0.187 C 
HETATM   24  O   UNL     1      -1.341  11.965  24.659  0.00  0.00    -0.388 OA
HETATM   25  C   UNL     1      -0.543  10.939  24.045  0.00  0.00     0.187 C 
HETATM   26  C   UNL     1       0.880  10.906  24.625  0.00  0.00     0.149 C 
ENDBRANCH  18  21
ENDBRANCH  13  15
ENDBRANCH   8  11
BRANCH   9  27
HETATM   27  O   UNL     1       8.438  16.287  21.474  0.00  0.00    -0.360 OA
HETATM   28  H   UNL     1       7.614  16.022  21.921  0.00  0.00     0.217 HD
ENDBRANCH   9  27
BRANCH   1  29
HETATM   29  C   UNL     1      12.445  10.839  21.114  0.00  0.00     0.036 C 
HETATM   30  C   UNL     1      13.770  10.341  20.500  0.00  0.00     0.016 C 
BRANCH  29  31
HETATM   31  C   UNL     1      12.390  10.405  22.592  0.00  0.00     0.006 C 
HETATM   32  C   UNL     1      13.165  11.314  23.537  0.00  0.00     0.006 C 
ENDBRANCH  29  31
ENDBRANCH   1  29
TORSDOF 6
ENDMDL
MODEL 7
REMARK VINA RESULT:    -7.869      6.823      9.017
REMARK INTER + INTRA:         -10.874
REMARK INTER:                 -10.174
REMARK INTRA:                  -0.701
REMARK UNBOUND:                -0.475
REMARK  6 active torsions:
REMARK  status: ('A' for Active; 'I' for Inactive)
REMARK    1  A    between atoms: C_2  and  C_3 
REMARK    2  A    between atoms: C_3  and  C_5 
REMARK    3  A    between atoms: C_12  and  C_16 
REMARK    4  A    between atoms: C_13  and  O_15 
REMARK       I    between atoms: C_16  and  N_18 
REMARK    5  A    between atoms: N_18  and  C_20 
REMARK    6  A    between atoms: C_23  and  N_26 
ROOT
HETATM    1  C   UNL     1       5.400  14.445  23.142  0.00  0.00     0.071 A 
HETATM    2  N   UNL     1       6.488  15.188  23.405  0.00  0.00    -0.178 NA
HETATM    3  N   UNL     1       7.509  14.426  22.992  0.00  0.00    -0.277 N 
HETATM    4  H   UNL     1       8.448  14.784  23.117  0.00  0.00     0.189 HD
HETATM    5  C   UNL     1       5.752  13.211  22.510  0.00  0.00     0.020 A 
HETATM    6  C   UNL     1       7.136  13.227  22.452  0.00  0.00     0.065 A 
HETATM    7  C   UNL     1       5.074  12.095  21.973  0.00  0.00     0.035 C 
HETATM    8  C   UNL     1       5.795  11.005  21.419  0.00  0.00     0.066 C 
HETATM    9  C   UNL     1       7.190  11.027  21.509  0.00  0.00     0.083 C 
HETATM   10  C   UNL     1       7.889  12.158  21.959  0.00  0.00     0.069 C 
ENDROOT
BRANCH   8  11
HETATM   11  C   UNL     1       4.949   9.888  20.887  0.00  0.00     0.260 C 
HETATM   12  O   UNL     1       4.367  10.166  19.833  0.00  0.00    -0.267 OA
HETATM   13  N   UNL     1       4.840   8.622  21.515  0.00  0.00    -0.318 N 
HETATM   14  C   UNL     1       5.342   8.302  22.852  0.00  0.00     0.159 C 
BRANCH  13  15
HETATM   15  C   UNL     1       4.178   7.539  20.819  0.00  0.00     0.037 A 
HETATM   16  C   UNL     1       4.752   6.951  19.690  0.00  0.00     0.032 A 
HETATM   17  C   UNL     1       4.103   5.921  18.991  0.00  0.00     0.031 A 
HETATM   18  C   UNL     1       2.847   5.432  19.370  0.00  0.00     0.030 A 
HETATM   19  C   UNL     1       2.311   5.981  20.543  0.00  0.00     0.031 A 
HETATM   20  C   UNL     1       2.962   7.006  21.260  0.00  0.00     0.032 A 
BRANCH  18  21
HETATM   21  N   UNL     1       2.161   4.516  18.603  0.00  0.00    -0.377 N 
HETATM   22  C   UNL     1       0.911   4.816  17.886  0.00  0.00     0.149 C 
HETATM   23  C   UNL     1       0.973   4.218  16.469  0.00  0.00     0.187 C 
HETATM   24  O   UNL     1       1.254   2.808  16.496  0.00  0.00    -0.388 OA
HETATM   25  C   UNL     1       2.510   2.567  17.151  0.00  0.00     0.187 C 
HETATM   26  C   UNL     1       2.503   3.081  18.599  0.00  0.00     0.149 C 
ENDBRANCH  18  21
ENDBRANCH  13  15
ENDBRANCH   8  11
BRANCH   9  27
HETATM   27  O   UNL     1       7.984   9.942  21.255  0.00  0.00    -0.360 OA
HETATM   28  H   UNL     1       7.408   9.156  21.259  0.00  0.00     0.217 HD
ENDBRANCH   9  27
BRANCH   1  29
HETATM   29  C   UNL     1       4.019  14.959  23.485  0.00  0.00     0.036 C 
HETATM   30  C   UNL     1       3.161  13.899  24.206  0.00  0.00     0.016 C 
BRANCH  29  31
HETATM   31  C   UNL     1       4.063  16.233  24.350  0.00  0.00     0.006 C 
HETATM   32  C   UNL     1       3.737  16.000  25.819  0.00  0.00     0.006 C 
ENDBRANCH  29  31
ENDBRANCH   1  29
TORSDOF 6
ENDMDL
MODEL 8
REMARK VINA RESULT:    -7.866      2.434     10.224
REMARK INTER + INTRA:         -10.870
REMARK INTER:                 -10.060
REMARK INTRA:                  -0.810
REMARK UNBOUND:                -0.475
REMARK  6 active torsions:
REMARK  status: ('A' for Active; 'I' for Inactive)
REMARK    1  A    between atoms: C_2  and  C_3 
REMARK    2  A    between atoms: C_3  and  C_5 
REMARK    3  A    between atoms: C_12  and  C_16 
REMARK    4  A    between atoms: C_13  and  O_15 
REMARK       I    between atoms: C_16  and  N_18 
REMARK    5  A    between atoms: N_18  and  C_20 
REMARK    6  A    between atoms: C_23  and  N_26 
ROOT
HETATM    1  C   UNL     1      -0.196  12.461  24.933  0.00  0.00     0.071 A 
HETATM    2  N   UNL     1      -1.042  12.819  25.913  0.00  0.00    -0.178 NA
HETATM    3  N   UNL     1      -0.355  13.726  26.620  0.00  0.00    -0.277 N 
HETATM    4  H   UNL     1      -0.799  14.124  27.438  0.00  0.00     0.189 HD
HETATM    5  C   UNL     1       1.029  13.197  25.007  0.00  0.00     0.020 A 
HETATM    6  C   UNL     1       0.895  13.992  26.134  0.00  0.00     0.065 A 
HETATM    7  C   UNL     1       2.222  13.295  24.259  0.00  0.00     0.035 C 
HETATM    8  C   UNL     1       3.268  14.162  24.671  0.00  0.00     0.066 C 
HETATM    9  C   UNL     1       3.120  14.839  25.885  0.00  0.00     0.083 C 
HETATM   10  C   UNL     1       1.914  14.825  26.602  0.00  0.00     0.069 C 
ENDROOT
BRANCH   8  11
HETATM   11  C   UNL     1       4.477  14.165  23.785  0.00  0.00     0.260 C 
HETATM   12  O   UNL     1       4.588  15.189  23.102  0.00  0.00    -0.267 OA
HETATM   13  N   UNL     1       5.421  13.109  23.745  0.00  0.00    -0.318 N 
HETATM   14  C   UNL     1       5.243  11.800  24.376  0.00  0.00     0.159 C 
BRANCH  13  15
HETATM   15  C   UNL     1       6.664  13.294  23.026  0.00  0.00     0.037 A 
HETATM   16  C   UNL     1       6.785  12.916  21.688  0.00  0.00     0.032 A 
HETATM   17  C   UNL     1       7.995  13.064  20.992  0.00  0.00     0.031 A 
HETATM   18  C   UNL     1       9.148  13.581  21.594  0.00  0.00     0.030 A 
HETATM   19  C   UNL     1       8.998  14.019  22.917  0.00  0.00     0.031 A 
HETATM   20  C   UNL     1       7.782  13.889  23.620  0.00  0.00     0.032 A 
BRANCH  18  21
HETATM   21  N   UNL     1      10.364  13.598  20.943  0.00  0.00    -0.377 N 
HETATM   22  C   UNL     1      11.222  14.789  20.836  0.00  0.00     0.149 C 
HETATM   23  C   UNL     1      12.684  14.397  21.109  0.00  0.00     0.187 C 
HETATM   24  O   UNL     1      13.123  13.335  20.244  0.00  0.00    -0.388 OA
HETATM   25  C   UNL     1      12.296  12.174  20.426  0.00  0.00     0.187 C 
HETATM   26  C   UNL     1      10.822  12.473  20.107  0.00  0.00     0.149 C 
ENDBRANCH  18  21
ENDBRANCH  13  15
ENDBRANCH   8  11
BRANCH   9  27
HETATM   27  O   UNL     1       4.141  15.493  26.519  0.00  0.00    -0.360 OA
HETATM   28  H   UNL     1       4.803  14.821  26.769  0.00  0.00     0.217 HD
ENDBRANCH   9  27
BRANCH   1  29
HETATM   29  C   UNL     1      -0.601  11.422  23.911  0.00  0.00     0.036 C 
HETATM   30  C   UNL     1      -0.372   9.983  24.416  0.00  0.00     0.016 C 
BRANCH  29  31
HETATM   31  C   UNL     1      -2.073  11.567  23.476  0.00  0.00     0.006 C 
HETATM   32  C   UNL     1      -2.285  12.519  22.307  0.00  0.00     0.006 C 
ENDBRANCH  29  31
ENDBRANCH   1  29
TORSDOF 6
ENDMDL
MODEL 9
REMARK VINA RESULT:    -7.841      2.839      3.920
REMARK INTER + INTRA:         -10.837
REMARK INTER:                 -10.362
REMARK INTRA:                  -0.475
REMARK UNBOUND:                -0.475
REMARK  6 active torsions:
REMARK  status: ('A' for Active; 'I' for Inactive)
REMARK    1  A    between atoms: C_2  and  C_3 
REMARK    2  A    between atoms: C_3  and  C_5 
REMARK    3  A    between atoms: C_12  and  C_16 
REMARK    4  A    between atoms: C_13  and  O_15 
REMARK       I    between atoms: C_16  and  N_18 
REMARK    5  A    between atoms: N_18  and  C_20 
REMARK    6  A    between atoms: C_23  and  N_26 
ROOT
HETATM    1  C   UNL     1      10.728  14.376  25.068  0.00  0.00     0.071 A 
HETATM    2  N   UNL     1      11.862  14.986  24.686  0.00  0.00    -0.178 NA
HETATM    3  N   UNL     1      11.575  15.476  23.472  0.00  0.00    -0.277 N 
HETATM    4  H   UNL     1      12.307  15.966  22.974  0.00  0.00     0.189 HD
HETATM    5  C   UNL     1       9.698  14.529  24.087  0.00  0.00     0.020 A 
HETATM    6  C   UNL     1      10.297  15.230  23.053  0.00  0.00     0.065 A 
HETATM    7  C   UNL     1       8.338  14.172  23.952  0.00  0.00     0.035 C 
HETATM    8  C   UNL     1       7.616  14.495  22.774  0.00  0.00     0.066 C 
HETATM    9  C   UNL     1       8.315  15.088  21.718  0.00  0.00     0.083 C 
HETATM   10  C   UNL     1       9.639  15.529  21.857  0.00  0.00     0.069 C 
ENDROOT
BRANCH   8  11
HETATM   11  C   UNL     1       6.184  14.054  22.765  0.00  0.00     0.260 C 
HETATM   12  O   UNL     1       5.965  13.100  22.011  0.00  0.00    -0.267 OA
HETATM   13  N   UNL     1       5.176  14.653  23.559  0.00  0.00    -0.318 N 
HETATM   14  C   UNL     1       5.331  15.898  24.314  0.00  0.00     0.159 C 
BRANCH  13  15
HETATM   15  C   UNL     1       3.874  14.025  23.649  0.00  0.00     0.037 A 
HETATM   16  C   UNL     1       3.748  12.636  23.698  0.00  0.00     0.032 A 
HETATM   17  C   UNL     1       2.489  12.016  23.755  0.00  0.00     0.031 A 
HETATM   18  C   UNL     1       1.294  12.745  23.753  0.00  0.00     0.030 A 
HETATM   19  C   UNL     1       1.433  14.139  23.772  0.00  0.00     0.031 A 
HETATM   20  C   UNL     1       2.694  14.771  23.730  0.00  0.00     0.032 A 
BRANCH  18  21
HETATM   21  N   UNL     1       0.064  12.127  23.674  0.00  0.00    -0.377 N 
HETATM   22  C   UNL     1      -0.296  10.916  24.428  0.00  0.00     0.149 C 
HETATM   23  C   UNL     1      -1.710  11.076  25.015  0.00  0.00     0.187 C 
HETATM   24  O   UNL     1      -2.678  11.386  23.998  0.00  0.00    -0.388 OA
HETATM   25  C   UNL     1      -2.319  12.606  23.329  0.00  0.00     0.187 C 
HETATM   26  C   UNL     1      -0.939  12.500  22.660  0.00  0.00     0.149 C 
ENDBRANCH  18  21
ENDBRANCH  13  15
ENDBRANCH   8  11
BRANCH   9  27
HETATM   27  O   UNL     1       7.813  15.214  20.451  0.00  0.00    -0.360 OA
HETATM   28  H   UNL     1       8.397  14.707  19.858  0.00  0.00     0.217 HD
ENDBRANCH   9  27
BRANCH   1  29
HETATM   29  C   UNL     1      10.649  13.671  26.404  0.00  0.00     0.036 C 
HETATM   30  C   UNL     1      11.212  12.236  26.344  0.00  0.00     0.016 C 
BRANCH  29  31
HETATM   31  C   UNL     1      11.378  14.443  27.521  0.00  0.00     0.006 C 
HETATM   32  C   UNL     1      12.640  13.759  28.029  0.00  0.00     0.006 C 
ENDBRANCH  29  31
ENDBRANCH   1  29
TORSDOF 6
ENDMDL
