MODEL 1
REMARK VINA RESULT:    -9.113      0.000      0.000
REMARK INTER + INTRA:         -13.308
REMARK INTER:                 -11.324
REMARK INTRA:                  -1.984
REMARK UNBOUND:                -1.797
REMARK  5 active torsions:
REMARK  status: ('A' for Active; 'I' for Inactive)
REMARK    1  A    between atoms: C_7  and  C_8 
REMARK    2  A    between atoms: C_8  and  C_9 
REMARK    3  A    between atoms: C_16  and  C_20 
REMARK    4  A    between atoms: C_17  and  O_19 
REMARK       I    between atoms: C_20  and  N_22 
REMARK    5  A    between atoms: N_22  and  C_24 
ROOT
HETATM    1  C   UNL     1       4.229  11.759  23.194  0.00  0.00     0.071 A 
HETATM    2  N   UNL     1       3.946  10.639  23.879  0.00  0.00    -0.178 NA
HETATM    3  N   UNL     1       5.047   9.883  23.738  0.00  0.00    -0.277 N 
HETATM    4  H   UNL     1       5.061   8.970  24.178  0.00  0.00     0.189 HD
HETATM    5  C   UNL     1       5.537  11.710  22.630  0.00  0.00     0.020 A 
HETATM    6  C   UNL     1       6.006  10.438  22.935  0.00  0.00     0.065 A 
HETATM    7  C   UNL     1       6.340  12.571  21.858  0.00  0.00     0.035 C 
HETATM    8  C   UNL     1       7.573  12.099  21.372  0.00  0.00     0.066 C 
HETATM    9  C   UNL     1       7.933  10.759  21.583  0.00  0.00     0.083 C 
HETATM   10  C   UNL     1       7.197   9.921  22.425  0.00  0.00     0.069 C 
ENDROOT
BRANCH   8  11
HETATM   11  C   UNL     1       8.463  12.996  20.579  0.00  0.00     0.260 C 
HETATM   12  O   UNL     1       8.367  12.884  19.353  0.00  0.00    -0.267 OA
HETATM   13  N   UNL     1       9.290  13.949  21.213  0.00  0.00    -0.318 N 
HETATM   14  C   UNL     1       9.874  14.997  20.376  0.00  0.00     0.159 C 
BRANCH  13  15
HETATM   15  C   UNL     1       9.753  13.879  22.571  0.00  0.00     0.039 A 
HETATM   16  C   UNL     1      10.641  12.875  22.974  0.00  0.00     0.032 A 
HETATM   17  C   UNL     1      11.058  12.765  24.305  0.00  0.00     0.042 A 
HETATM   18  C   UNL     1      10.607  13.677  25.252  0.00  0.00     0.102 A 
HETATM   19  C   UNL     1       9.753  14.707  24.869  0.00  0.00     0.104 A 
HETATM   20  O   UNL     1      11.058  13.494  26.533  0.00  0.00    -0.346 OA
HETATM   21  C   UNL     1       9.349  14.827  23.531  0.00  0.00     0.069 A 
HETATM   22  O   UNL     1       9.267  15.641  25.752  0.00  0.00    -0.346 OA
HETATM   23  C   UNL     1       9.417  15.203  27.112  0.00  0.00     0.202 C 
HETATM   24  C   UNL     1      10.810  14.642  27.354  0.00  0.00     0.202 C 
ENDBRANCH  13  15
ENDBRANCH   8  11
BRANCH   9  25
HETATM   25  O   UNL     1       8.998  10.171  20.950  0.00  0.00    -0.360 OA
HETATM   26  H   UNL     1       8.624   9.517  20.318  0.00  0.00     0.217 HD
ENDBRANCH   9  25
BRANCH   1  27
HETATM   27  C   UNL     1       3.185  12.808  22.966  0.00  0.00     0.100 C 
BRANCH  27  28
HETATM   28  C   UNL     1       3.349  13.941  23.953  0.00  0.00    -0.052 A 
HETATM   29  C   UNL     1       2.743  13.969  25.217  0.00  0.00     0.014 A 
HETATM   30  C   UNL     1       2.840  15.101  26.037  0.00  0.00    -0.061 A 
HETATM   31  C   UNL     1       1.986  15.220  27.262  0.00  0.00     0.048 C 
HETATM   32  C   UNL     1       3.651  16.170  25.641  0.00  0.00     0.007 A 
HETATM   33  C   UNL     1       4.337  16.119  24.432  0.00  0.00     0.001 A 
HETATM   34  C   UNL     1       4.178  15.018  23.590  0.00  0.00     0.007 A 
ENDBRANCH  27  28
ENDBRANCH   1  27
TORSDOF 5
ENDMDL
MODEL 2
REMARK VINA RESULT:    -9.096      1.630      1.961
REMARK INTER + INTRA:         -13.286
REMARK INTER:                 -11.198
REMARK INTRA:                  -2.088
REMARK UNBOUND:                -1.797
REMARK  5 active torsions:
REMARK  status: ('A' for Active; 'I' for Inactive)
REMARK    1  A    between atoms: C_7  and  C_8 
REMARK    2  A    between atoms: C_8  and  C_9 
REMARK    3  A    between atoms: C_16  and  C_20 
REMARK    4  A    between atoms: C_17  and  O_19 
REMARK       I    between atoms: C_20  and  N_22 
REMARK    5  A    between atoms: N_22  and  C_24 
ROOT
HETATM    1  C   UNL     1       2.922  11.683  23.746  0.00  0.00     0.071 A 
HETATM    2  N   UNL     1       2.479  10.859  24.710  0.00  0.00    -0.178 NA
HETATM    3  N   UNL     1       3.258   9.771  24.594  0.00  0.00    -0.277 N 
HETATM    4  H   UNL     1       3.101   8.998  25.230  0.00  0.00     0.189 HD
HETATM    5  C   UNL     1       4.010  11.108  23.027  0.00  0.00     0.020 A 
HETATM    6  C   UNL     1       4.144   9.828  23.552  0.00  0.00     0.065 A 
HETATM    7  C   UNL     1       4.845  11.505  21.965  0.00  0.00     0.035 C 
HETATM    8  C   UNL     1       5.756  10.577  21.431  0.00  0.00     0.066 C 
HETATM    9  C   UNL     1       5.749   9.253  21.898  0.00  0.00     0.083 C 
HETATM   10  C   UNL     1       4.998   8.866  23.010  0.00  0.00     0.069 C 
ENDROOT
BRANCH   8  11
HETATM   11  C   UNL     1       6.678  10.975  20.328  0.00  0.00     0.260 C 
HETATM   12  O   UNL     1       6.409  10.503  19.219  0.00  0.00    -0.267 OA
HETATM   13  N   UNL     1       7.730  11.889  20.552  0.00  0.00    -0.318 N 
HETATM   14  C   UNL     1       8.374  12.477  19.377  0.00  0.00     0.159 C 
BRANCH  13  15
HETATM   15  C   UNL     1       8.344  12.159  21.823  0.00  0.00     0.039 A 
HETATM   16  C   UNL     1       9.230  11.242  22.400  0.00  0.00     0.032 A 
HETATM   17  C   UNL     1       9.793  11.470  23.660  0.00  0.00     0.042 A 
HETATM   18  C   UNL     1       9.492  12.636  24.355  0.00  0.00     0.102 A 
HETATM   19  C   UNL     1       8.644  13.581  23.787  0.00  0.00     0.104 A 
HETATM   20  O   UNL     1      10.080  12.778  25.584  0.00  0.00    -0.346 OA
HETATM   21  C   UNL     1       8.094  13.360  22.515  0.00  0.00     0.069 A 
HETATM   22  O   UNL     1       8.303  14.754  24.417  0.00  0.00    -0.346 OA
HETATM   23  C   UNL     1       8.591  14.694  25.823  0.00  0.00     0.202 C 
HETATM   24  C   UNL     1       9.978  14.121  26.072  0.00  0.00     0.202 C 
ENDBRANCH  13  15
ENDBRANCH   8  11
BRANCH   9  25
HETATM   25  O   UNL     1       6.438   8.245  21.273  0.00  0.00    -0.360 OA
HETATM   26  H   UNL     1       5.797   7.516  21.120  0.00  0.00     0.217 HD
ENDBRANCH   9  25
BRANCH   1  27
HETATM   27  C   UNL     1       2.204  12.958  23.431  0.00  0.00     0.100 C 
BRANCH  27  28
HETATM   28  C   UNL     1       2.840  14.119  24.161  0.00  0.00    -0.052 A 
HETATM   29  C   UNL     1       2.560  14.451  25.494  0.00  0.00     0.014 A 
HETATM   30  C   UNL     1       3.094  15.608  26.075  0.00  0.00    -0.061 A 
HETATM   31  C   UNL     1       2.591  16.087  27.403  0.00  0.00     0.048 C 
HETATM   32  C   UNL     1       4.014  16.378  25.355  0.00  0.00     0.007 A 
HETATM   33  C   UNL     1       4.378  16.009  24.064  0.00  0.00     0.001 A 
HETATM   34  C   UNL     1       3.787  14.894  23.469  0.00  0.00     0.007 A 
ENDBRANCH  27  28
ENDBRANCH   1  27
TORSDOF 5
ENDMDL
MODEL 3
REMARK VINA RESULT:    -9.053      2.441      5.224
REMARK INTER + INTRA:         -13.232
REMARK INTER:                 -11.651
REMARK INTRA:                  -1.581
REMARK UNBOUND:                -1.797
REMARK  5 active torsions:
REMARK  status: ('A' for Active; 'I' for Inactive)
REMARK    1  A    between atoms: C_7  and  C_8 
REMARK    2  A    between atoms: C_8  and  C_9 
REMARK    3  A    between atoms: C_16  and  C_20 
REMARK    4  A    between atoms: C_17  and  O_19 
REMARK       I    between atoms: C_20  and  N_22 
REMARK    5  A    between atoms: N_22  and  C_24 
ROOT
HETATM    1  C   UNL     1       5.811  15.353  24.625  0.00  0.00     0.071 A 
HETATM    2  N   UNL     1       5.639  15.341  25.957  0.00  0.00    -0.178 NA
HETATM    3  N   UNL     1       6.768  14.787  26.427  0.00  0.00    -0.277 N 
HETATM    4  H   UNL     1       6.863  14.670  27.430  0.00  0.00     0.189 HD
HETATM    5  C   UNL     1       7.078  14.813  24.258  0.00  0.00     0.020 A 
HETATM    6  C   UNL     1       7.636  14.378  25.452  0.00  0.00     0.065 A 
HETATM    7  C   UNL     1       7.777  14.598  23.054  0.00  0.00     0.035 C 
HETATM    8  C   UNL     1       8.997  13.900  23.090  0.00  0.00     0.066 C 
HETATM    9  C   UNL     1       9.445  13.352  24.302  0.00  0.00     0.083 C 
HETATM   10  C   UNL     1       8.817  13.635  25.518  0.00  0.00     0.069 C 
ENDROOT
BRANCH   8  11
HETATM   11  C   UNL     1       9.779  13.684  21.838  0.00  0.00     0.260 C 
HETATM   12  O   UNL     1      10.524  14.616  21.516  0.00  0.00    -0.267 OA
HETATM   13  N   UNL     1       9.708  12.462  21.136  0.00  0.00    -0.318 N 
HETATM   14  C   UNL     1      10.733  12.206  20.124  0.00  0.00     0.159 C 
BRANCH  13  15
HETATM   15  C   UNL     1       8.620  11.526  21.198  0.00  0.00     0.039 A 
HETATM   16  C   UNL     1       8.460  10.686  22.305  0.00  0.00     0.032 A 
HETATM   17  C   UNL     1       7.435   9.735  22.353  0.00  0.00     0.042 A 
HETATM   18  C   UNL     1       6.538   9.626  21.298  0.00  0.00     0.102 A 
HETATM   19  C   UNL     1       6.652  10.475  20.201  0.00  0.00     0.104 A 
HETATM   20  O   UNL     1       5.569   8.665  21.422  0.00  0.00    -0.346 OA
HETATM   21  C   UNL     1       7.670  11.441  20.161  0.00  0.00     0.069 A 
HETATM   22  O   UNL     1       5.802  10.422  19.123  0.00  0.00    -0.346 OA
HETATM   23  C   UNL     1       5.078   9.183  19.090  0.00  0.00     0.202 C 
HETATM   24  C   UNL     1       4.519   8.840  20.463  0.00  0.00     0.202 C 
ENDBRANCH  13  15
ENDBRANCH   8  11
BRANCH   9  25
HETATM   25  O   UNL     1      10.494  12.471  24.373  0.00  0.00    -0.360 OA
HETATM   26  H   UNL     1      11.127  12.837  25.030  0.00  0.00     0.217 HD
ENDBRANCH   9  25
BRANCH   1  27
HETATM   27  C   UNL     1       4.698  15.752  23.706  0.00  0.00     0.100 C 
BRANCH  27  28
HETATM   28  C   UNL     1       3.665  14.652  23.617  0.00  0.00    -0.052 A 
HETATM   29  C   UNL     1       2.318  14.815  23.972  0.00  0.00     0.014 A 
HETATM   30  C   UNL     1       1.438  13.725  23.977  0.00  0.00    -0.061 A 
HETATM   31  C   UNL     1       0.080  13.855  24.597  0.00  0.00     0.048 C 
HETATM   32  C   UNL     1       1.879  12.482  23.508  0.00  0.00     0.007 A 
HETATM   33  C   UNL     1       3.187  12.326  23.062  0.00  0.00     0.001 A 
HETATM   34  C   UNL     1       4.075  13.400  23.126  0.00  0.00     0.007 A 
ENDBRANCH  27  28
ENDBRANCH   1  27
TORSDOF 5
ENDMDL
MODEL 4
REMARK VINA RESULT:    -8.617      2.392      4.894
REMARK INTER + INTRA:         -12.681
REMARK INTER:                 -10.711
REMARK INTRA:                  -1.970
REMARK UNBOUND:                -1.797
REMARK  5 active torsions:
REMARK  status: ('A' for Active; 'I' for Inactive)
REMARK    1  A    between atoms: C_7  and  C_8 
REMARK    2  A    between atoms: C_8  and  C_9 
REMARK    3  A    between atoms: C_16  and  C_20 
REMARK    4  A    between atoms: C_17  and  O_19 
REMARK       I    between atoms: C_20  and  N_22 
REMARK    5  A    between atoms: N_22  and  C_24 
ROOT
HETATM    1  C   UNL     1       7.416  14.444  26.080  0.00  0.00     0.071 A 
HETATM    2  N   UNL     1       8.128  14.968  27.091  0.00  0.00    -0.178 NA
HETATM    3  N   UNL     1       9.207  15.495  26.491  0.00  0.00    -0.277 N 
HETATM    4  H   UNL     1       9.903  15.952  27.070  0.00  0.00     0.189 HD
HETATM    5  C   UNL     1       8.052  14.664  24.824  0.00  0.00     0.020 A 
HETATM    6  C   UNL     1       9.258  15.276  25.141  0.00  0.00     0.065 A 
HETATM    7  C   UNL     1       7.768  14.363  23.478  0.00  0.00     0.035 C 
HETATM    8  C   UNL     1       8.736  14.644  22.498  0.00  0.00     0.066 C 
HETATM    9  C   UNL     1       9.996  15.126  22.888  0.00  0.00     0.083 C 
HETATM   10  C   UNL     1      10.262  15.519  24.202  0.00  0.00     0.069 C 
ENDROOT
BRANCH   8  11
HETATM   11  C   UNL     1       8.454  14.369  21.059  0.00  0.00     0.260 C 
HETATM   12  O   UNL     1       8.604  15.332  20.300  0.00  0.00    -0.267 OA
HETATM   13  N   UNL     1       8.117  13.071  20.617  0.00  0.00    -0.318 N 
HETATM   14  C   UNL     1       8.179  12.812  19.179  0.00  0.00     0.159 C 
BRANCH  13  15
HETATM   15  C   UNL     1       7.547  12.034  21.432  0.00  0.00     0.039 A 
HETATM   16  C   UNL     1       6.171  11.995  21.683  0.00  0.00     0.032 A 
HETATM   17  C   UNL     1       5.612  11.022  22.518  0.00  0.00     0.042 A 
HETATM   18  C   UNL     1       6.423  10.055  23.099  0.00  0.00     0.102 A 
HETATM   19  C   UNL     1       7.790  10.049  22.835  0.00  0.00     0.104 A 
HETATM   20  O   UNL     1       5.797   9.143  23.907  0.00  0.00    -0.346 OA
HETATM   21  C   UNL     1       8.348  11.016  21.984  0.00  0.00     0.069 A 
HETATM   22  O   UNL     1       8.651   9.125  23.377  0.00  0.00    -0.346 OA
HETATM   23  C   UNL     1       8.061   8.458  24.503  0.00  0.00     0.202 C 
HETATM   24  C   UNL     1       6.638   8.019  24.193  0.00  0.00     0.202 C 
ENDBRANCH  13  15
ENDBRANCH   8  11
BRANCH   9  25
HETATM   25  O   UNL     1      11.058  15.203  22.024  0.00  0.00    -0.360 OA
HETATM   26  H   UNL     1      11.705  14.520  22.309  0.00  0.00     0.217 HD
ENDBRANCH   9  25
BRANCH   1  27
HETATM   27  C   UNL     1       6.199  13.611  26.343  0.00  0.00     0.100 C 
BRANCH  27  28
HETATM   28  C   UNL     1       5.019  14.133  25.555  0.00  0.00    -0.052 A 
HETATM   29  C   UNL     1       4.069  13.309  24.936  0.00  0.00     0.014 A 
HETATM   30  C   UNL     1       3.066  13.853  24.122  0.00  0.00    -0.061 A 
HETATM   31  C   UNL     1       2.221  12.958  23.267  0.00  0.00     0.048 C 
HETATM   32  C   UNL     1       2.938  15.242  24.023  0.00  0.00     0.007 A 
HETATM   33  C   UNL     1       3.815  16.077  24.709  0.00  0.00     0.001 A 
HETATM   34  C   UNL     1       4.853  15.526  25.460  0.00  0.00     0.007 A 
ENDBRANCH  27  28
ENDBRANCH   1  27
TORSDOF 5
ENDMDL
MODEL 5
REMARK VINA RESULT:    -8.595      2.893      6.601
REMARK INTER + INTRA:         -12.654
REMARK INTER:                 -11.177
REMARK INTRA:                  -1.477
REMARK UNBOUND:                -1.797
REMARK  5 active torsions:
REMARK  status: ('A' for Active; 'I' for Inactive)
REMARK    1  A    between atoms: C_7  and  C_8 
REMARK    2  A    between atoms: C_8  and  C_9 
REMARK    3  A    between atoms: C_16  and  C_20 
REMARK    4  A    between atoms: C_17  and  O_19 
REMARK       I    between atoms: C_20  and  N_22 
REMARK    5  A    between atoms: N_22  and  C_24 
ROOT
HETATM    1  C   UNL     1       7.733  14.516  21.556  0.00  0.00     0.071 A 
HETATM    2  N   UNL     1       7.871  15.037  20.326  0.00  0.00    -0.178 NA
HETATM    3  N   UNL     1       8.424  14.043  19.611  0.00  0.00    -0.277 N 
HETATM    4  H   UNL     1       8.627  14.212  18.632  0.00  0.00     0.189 HD
HETATM    5  C   UNL     1       8.190  13.167  21.606  0.00  0.00     0.020 A 
HETATM    6  C   UNL     1       8.711  12.923  20.342  0.00  0.00     0.065 A 
HETATM    7  C   UNL     1       8.270  12.161  22.588  0.00  0.00     0.035 C 
HETATM    8  C   UNL     1       8.922  10.955  22.276  0.00  0.00     0.066 C 
HETATM    9  C   UNL     1       9.561  10.814  21.034  0.00  0.00     0.083 C 
HETATM   10  C   UNL     1       9.411  11.760  20.016  0.00  0.00     0.069 C 
ENDROOT
BRANCH   8  11
HETATM   11  C   UNL     1       8.995   9.855  23.282  0.00  0.00     0.260 C 
HETATM   12  O   UNL     1      10.035   9.818  23.948  0.00  0.00    -0.267 OA
HETATM   13  N   UNL     1       7.905   8.981  23.487  0.00  0.00    -0.318 N 
HETATM   14  C   UNL     1       7.923   8.155  24.694  0.00  0.00     0.159 C 
BRANCH  13  15
HETATM   15  C   UNL     1       6.871   8.699  22.531  0.00  0.00     0.039 A 
HETATM   16  C   UNL     1       5.924   9.672  22.192  0.00  0.00     0.032 A 
HETATM   17  C   UNL     1       4.881   9.393  21.302  0.00  0.00     0.042 A 
HETATM   18  C   UNL     1       4.784   8.135  20.719  0.00  0.00     0.102 A 
HETATM   19  C   UNL     1       5.735   7.162  21.010  0.00  0.00     0.104 A 
HETATM   20  O   UNL     1       3.730   7.943  19.865  0.00  0.00    -0.346 OA
HETATM   21  C   UNL     1       6.790   7.448  21.889  0.00  0.00     0.069 A 
HETATM   22  O   UNL     1       5.699   5.898  20.471  0.00  0.00    -0.346 OA
HETATM   23  C   UNL     1       4.406   5.600  19.923  0.00  0.00     0.202 C 
HETATM   24  C   UNL     1       3.891   6.756  19.079  0.00  0.00     0.202 C 
ENDBRANCH  13  15
ENDBRANCH   8  11
BRANCH   9  25
HETATM   25  O   UNL     1      10.404   9.771  20.749  0.00  0.00    -0.360 OA
HETATM   26  H   UNL     1      11.317  10.137  20.748  0.00  0.00     0.217 HD
ENDBRANCH   9  25
BRANCH   1  27
HETATM   27  C   UNL     1       7.295  15.366  22.709  0.00  0.00     0.100 C 
BRANCH  27  28
HETATM   28  C   UNL     1       5.869  15.042  23.093  0.00  0.00    -0.052 A 
HETATM   29  C   UNL     1       5.305  13.762  22.992  0.00  0.00     0.014 A 
HETATM   30  C   UNL     1       3.944  13.553  23.253  0.00  0.00    -0.061 A 
HETATM   31  C   UNL     1       3.300  12.247  22.898  0.00  0.00     0.048 C 
HETATM   32  C   UNL     1       3.166  14.610  23.736  0.00  0.00     0.007 A 
HETATM   33  C   UNL     1       3.733  15.865  23.935  0.00  0.00     0.001 A 
HETATM   34  C   UNL     1       5.072  16.081  23.605  0.00  0.00     0.007 A 
ENDBRANCH  27  28
ENDBRANCH   1  27
TORSDOF 5
ENDMDL
MODEL 6
REMARK VINA RESULT:    -8.558      2.704      6.266
REMARK INTER + INTRA:         -12.607
REMARK INTER:                 -10.668
REMARK INTRA:                  -1.939
REMARK UNBOUND:                -1.797
REMARK  5 active torsions:
REMARK  status: ('A' for Active; 'I' for Inactive)
REMARK    1  A    between atoms: C_7  and  C_8 
REMARK    2  A    between atoms: C_8  and  C_9 
REMARK    3  A    between atoms: C_16  and  C_20 
REMARK    4  A    between atoms: C_17  and  O_19 
REMARK       I    between atoms: C_20  and  N_22 
REMARK    5  A    between atoms: N_22  and  C_24 
ROOT
HETATM    1  C   UNL     1      10.689  11.525  25.364  0.00  0.00     0.071 A 
HETATM    2  N   UNL     1      10.913  11.736  26.671  0.00  0.00    -0.178 NA
HETATM    3  N   UNL     1      10.849  13.071  26.802  0.00  0.00    -0.277 N 
HETATM    4  H   UNL     1      10.994  13.470  27.722  0.00  0.00     0.189 HD
HETATM    5  C   UNL     1      10.463  12.748  24.668  0.00  0.00     0.020 A 
HETATM    6  C   UNL     1      10.660  13.739  25.622  0.00  0.00     0.065 A 
HETATM    7  C   UNL     1      10.175  13.121  23.341  0.00  0.00     0.035 C 
HETATM    8  C   UNL     1      10.146  14.487  23.008  0.00  0.00     0.066 C 
HETATM    9  C   UNL     1      10.496  15.443  23.975  0.00  0.00     0.083 C 
HETATM   10  C   UNL     1      10.692  15.100  25.315  0.00  0.00     0.069 C 
ENDROOT
BRANCH   8  11
HETATM   11  C   UNL     1       9.810  14.917  21.620  0.00  0.00     0.260 C 
HETATM   12  O   UNL     1      10.722  15.485  21.009  0.00  0.00    -0.267 OA
HETATM   13  N   UNL     1       8.556  14.614  21.045  0.00  0.00    -0.318 N 
HETATM   14  C   UNL     1       8.423  14.772  19.597  0.00  0.00     0.159 C 
BRANCH  13  15
HETATM   15  C   UNL     1       7.350  14.337  21.775  0.00  0.00     0.039 A 
HETATM   16  C   UNL     1       6.784  13.057  21.764  0.00  0.00     0.032 A 
HETATM   17  C   UNL     1       5.582  12.789  22.426  0.00  0.00     0.042 A 
HETATM   18  C   UNL     1       4.937  13.797  23.132  0.00  0.00     0.102 A 
HETATM   19  C   UNL     1       5.499  15.070  23.190  0.00  0.00     0.104 A 
HETATM   20  O   UNL     1       3.762  13.452  23.747  0.00  0.00    -0.346 OA
HETATM   21  C   UNL     1       6.714  15.334  22.540  0.00  0.00     0.069 A 
HETATM   22  O   UNL     1       4.915  16.114  23.868  0.00  0.00    -0.346 OA
HETATM   23  C   UNL     1       3.532  15.847  24.147  0.00  0.00     0.202 C 
HETATM   24  C   UNL     1       3.348  14.441  24.697  0.00  0.00     0.202 C 
ENDBRANCH  13  15
ENDBRANCH   8  11
BRANCH   9  25
HETATM   25  O   UNL     1      10.714  16.761  23.666  0.00  0.00    -0.360 OA
HETATM   26  H   UNL     1       9.906  17.081  23.206  0.00  0.00     0.217 HD
ENDBRANCH   9  25
BRANCH   1  27
HETATM   27  C   UNL     1      10.836  10.159  24.766  0.00  0.00     0.100 C 
BRANCH  27  28
HETATM   28  C   UNL     1       9.544   9.727  24.111  0.00  0.00    -0.052 A 
HETATM   29  C   UNL     1       8.537   9.007  24.770  0.00  0.00     0.014 A 
HETATM   30  C   UNL     1       7.417   8.536  24.074  0.00  0.00    -0.061 A 
HETATM   31  C   UNL     1       6.483   7.559  24.722  0.00  0.00     0.048 C 
HETATM   32  C   UNL     1       7.241   8.889  22.732  0.00  0.00     0.007 A 
HETATM   33  C   UNL     1       8.183   9.684  22.088  0.00  0.00     0.001 A 
HETATM   34  C   UNL     1       9.331  10.090  22.769  0.00  0.00     0.007 A 
ENDBRANCH  27  28
ENDBRANCH   1  27
TORSDOF 5
ENDMDL
MODEL 7
REMARK VINA RESULT:    -8.437      2.953      5.771
REMARK INTER + INTRA:         -12.453
REMARK INTER:                 -10.547
REMARK INTRA:                  -1.907
REMARK UNBOUND:                -1.797
REMARK  5 active torsions:
REMARK  status: ('A' for Active; 'I' for Inactive)
REMARK    1  A    between atoms: C_7  and  C_8 
REMARK    2  A    between atoms: C_8  and  C_9 
REMARK    3  A    between atoms: C_16  and  C_20 
REMARK    4  A    between atoms: C_17  and  O_19 
REMARK       I    between atoms: C_20  and  N_22 
REMARK    5  A    between atoms: N_22  and  C_24 
ROOT
HETATM    1  C   UNL     1       7.315  14.724  23.078  0.00  0.00     0.071 A 
HETATM    2  N   UNL     1       8.320  14.965  23.935  0.00  0.00    -0.178 NA
HETATM    3  N   UNL     1       9.032  13.826  23.931  0.00  0.00    -0.277 N 
HETATM    4  H   UNL     1       9.856  13.773  24.521  0.00  0.00     0.189 HD
HETATM    5  C   UNL     1       7.410  13.418  22.515  0.00  0.00     0.020 A 
HETATM    6  C   UNL     1       8.493  12.833  23.159  0.00  0.00     0.065 A 
HETATM    7  C   UNL     1       6.672  12.659  21.586  0.00  0.00     0.035 C 
HETATM    8  C   UNL     1       7.021  11.314  21.375  0.00  0.00     0.066 C 
HETATM    9  C   UNL     1       8.029  10.729  22.158  0.00  0.00     0.083 C 
HETATM   10  C   UNL     1       8.832  11.487  23.014  0.00  0.00     0.069 C 
ENDROOT
BRANCH   8  11
HETATM   11  C   UNL     1       6.283  10.492  20.373  0.00  0.00     0.260 C 
HETATM   12  O   UNL     1       6.558  10.727  19.192  0.00  0.00    -0.267 OA
HETATM   13  N   UNL     1       5.394   9.473  20.779  0.00  0.00    -0.318 N 
HETATM   14  C   UNL     1       4.968   8.507  19.765  0.00  0.00     0.159 C 
BRANCH  13  15
HETATM   15  C   UNL     1       4.731   9.402  22.052  0.00  0.00     0.039 A 
HETATM   16  C   UNL     1       4.178  10.547  22.635  0.00  0.00     0.032 A 
HETATM   17  C   UNL     1       3.576  10.501  23.898  0.00  0.00     0.042 A 
HETATM   18  C   UNL     1       3.500   9.297  24.587  0.00  0.00     0.102 A 
HETATM   19  C   UNL     1       4.009   8.136  24.012  0.00  0.00     0.104 A 
HETATM   20  O   UNL     1       2.901   9.340  25.819  0.00  0.00    -0.346 OA
HETATM   21  C   UNL     1       4.596   8.180  22.738  0.00  0.00     0.069 A 
HETATM   22  O   UNL     1       3.968   6.913  24.637  0.00  0.00    -0.346 OA
HETATM   23  C   UNL     1       3.719   7.053  26.044  0.00  0.00     0.202 C 
HETATM   24  C   UNL     1       2.581   8.030  26.302  0.00  0.00     0.202 C 
ENDBRANCH  13  15
ENDBRANCH   8  11
BRANCH   9  25
HETATM   25  O   UNL     1       8.265   9.378  22.173  0.00  0.00    -0.360 OA
HETATM   26  H   UNL     1       9.049   9.221  21.602  0.00  0.00     0.217 HD
ENDBRANCH   9  25
BRANCH   1  27
HETATM   27  C   UNL     1       6.189  15.699  22.915  0.00  0.00     0.100 C 
BRANCH  27  28
HETATM   28  C   UNL     1       5.007  15.289  23.763  0.00  0.00    -0.052 A 
HETATM   29  C   UNL     1       3.953  14.488  23.298  0.00  0.00     0.014 A 
HETATM   30  C   UNL     1       2.830  14.242  24.099  0.00  0.00    -0.061 A 
HETATM   31  C   UNL     1       1.608  13.606  23.508  0.00  0.00     0.048 C 
HETATM   32  C   UNL     1       2.812  14.700  25.420  0.00  0.00     0.007 A 
HETATM   33  C   UNL     1       3.892  15.415  25.928  0.00  0.00     0.001 A 
HETATM   34  C   UNL     1       4.976  15.716  25.103  0.00  0.00     0.007 A 
ENDBRANCH  27  28
ENDBRANCH   1  27
TORSDOF 5
ENDMDL
MODEL 8
REMARK VINA RESULT:    -8.389      3.587      6.577
REMARK INTER + INTRA:         -12.393
REMARK INTER:                 -10.596
REMARK INTRA:                  -1.797
REMARK UNBOUND:                -1.797
REMARK  5 active torsions:
REMARK  status: ('A' for Active; 'I' for Inactive)
REMARK    1  A    between atoms: C_7  and  C_8 
REMARK    2  A    between atoms: C_8  and  C_9 
REMARK    3  A    between atoms: C_16  and  C_20 
REMARK    4  A    between atoms: C_17  and  O_19 
REMARK       I    between atoms: C_20  and  N_22 
REMARK    5  A    between atoms: N_22  and  C_24 
ROOT
HETATM    1  C   UNL     1       1.355  12.033  24.194  0.00  0.00     0.071 A 
HETATM    2  N   UNL     1       0.213  11.432  24.565  0.00  0.00    -0.178 NA
HETATM    3  N   UNL     1       0.606  10.224  25.001  0.00  0.00    -0.277 N 
HETATM    4  H   UNL     1      -0.102   9.580  25.335  0.00  0.00     0.189 HD
HETATM    5  C   UNL     1       2.484  11.194  24.418  0.00  0.00     0.020 A 
HETATM    6  C   UNL     1       1.948   9.992  24.865  0.00  0.00     0.065 A 
HETATM    7  C   UNL     1       3.877  11.300  24.239  0.00  0.00     0.035 C 
HETATM    8  C   UNL     1       4.681  10.169  24.467  0.00  0.00     0.066 C 
HETATM    9  C   UNL     1       4.077   8.940  24.774  0.00  0.00     0.083 C 
HETATM   10  C   UNL     1       2.710   8.837  25.048  0.00  0.00     0.069 C 
ENDROOT
BRANCH   8  11
HETATM   11  C   UNL     1       6.163  10.256  24.320  0.00  0.00     0.260 C 
HETATM   12  O   UNL     1       6.759  10.759  25.278  0.00  0.00    -0.267 OA
HETATM   13  N   UNL     1       6.815   9.725  23.186  0.00  0.00    -0.318 N 
HETATM   14  C   UNL     1       8.266   9.553  23.263  0.00  0.00     0.159 C 
BRANCH  13  15
HETATM   15  C   UNL     1       6.210   9.505  21.902  0.00  0.00     0.039 A 
HETATM   16  C   UNL     1       6.038  10.561  21.001  0.00  0.00     0.032 A 
HETATM   17  C   UNL     1       5.402  10.369  19.770  0.00  0.00     0.042 A 
HETATM   18  C   UNL     1       4.947   9.106  19.412  0.00  0.00     0.102 A 
HETATM   19  C   UNL     1       5.140   8.031  20.274  0.00  0.00     0.104 A 
HETATM   20  O   UNL     1       4.330   9.006  18.192  0.00  0.00    -0.346 OA
HETATM   21  C   UNL     1       5.793   8.221  21.502  0.00  0.00     0.069 A 
HETATM   22  O   UNL     1       4.715   6.756  19.986  0.00  0.00    -0.346 OA
HETATM   23  C   UNL     1       3.744   6.756  18.928  0.00  0.00     0.202 C 
HETATM   24  C   UNL     1       4.191   7.642  17.776  0.00  0.00     0.202 C 
ENDBRANCH  13  15
ENDBRANCH   8  11
BRANCH   9  25
HETATM   25  O   UNL     1       4.769   7.756  24.782  0.00  0.00    -0.360 OA
HETATM   26  H   UNL     1       5.522   7.873  25.403  0.00  0.00     0.217 HD
ENDBRANCH   9  25
BRANCH   1  27
HETATM   27  C   UNL     1       1.337  13.357  23.493  0.00  0.00     0.100 C 
BRANCH  27  28
HETATM   28  C   UNL     1       2.391  14.275  24.069  0.00  0.00    -0.052 A 
HETATM   29  C   UNL     1       3.510  14.725  23.353  0.00  0.00     0.014 A 
HETATM   30  C   UNL     1       4.509  15.479  23.981  0.00  0.00    -0.061 A 
HETATM   31  C   UNL     1       5.811  15.735  23.283  0.00  0.00     0.048 C 
HETATM   32  C   UNL     1       4.332  15.890  25.307  0.00  0.00     0.007 A 
HETATM   33  C   UNL     1       3.182  15.532  26.003  0.00  0.00     0.001 A 
HETATM   34  C   UNL     1       2.225  14.723  25.392  0.00  0.00     0.007 A 
ENDBRANCH  27  28
ENDBRANCH   1  27
TORSDOF 5
ENDMDL
MODEL 9
REMARK VINA RESULT:    -8.339      3.023      5.732
REMARK INTER + INTRA:         -12.330
REMARK INTER:                 -10.690
REMARK INTRA:                  -1.639
REMARK UNBOUND:                -1.797
REMARK  5 active torsions:
REMARK  status: ('A' for Active; 'I' for Inactive)
REMARK    1  A    between atoms: C_7  and  C_8 
REMARK    2  A    between atoms: C_8  and  C_9 
REMARK    3  A    between atoms: C_16  and  C_20 
REMARK    4  A    between atoms: C_17  and  O_19 
REMARK       I    between atoms: C_20  and  N_22 
REMARK    5  A    between atoms: N_22  and  C_24 
ROOT
HETATM    1  C   UNL     1       2.215  14.622  24.342  0.00  0.00     0.071 A 
HETATM    2  N   UNL     1       1.762  14.815  25.592  0.00  0.00    -0.178 NA
HETATM    3  N   UNL     1       2.868  15.095  26.300  0.00  0.00    -0.277 N 
HETATM    4  H   UNL     1       2.769  15.278  27.292  0.00  0.00     0.189 HD
HETATM    5  C   UNL     1       3.627  14.803  24.265  0.00  0.00     0.020 A 
HETATM    6  C   UNL     1       4.027  15.026  25.576  0.00  0.00     0.065 A 
HETATM    7  C   UNL     1       4.601  14.745  23.250  0.00  0.00     0.035 C 
HETATM    8  C   UNL     1       5.958  14.863  23.600  0.00  0.00     0.066 C 
HETATM    9  C   UNL     1       6.319  14.940  24.954  0.00  0.00     0.083 C 
HETATM   10  C   UNL     1       5.366  15.094  25.964  0.00  0.00     0.069 C 
ENDROOT
BRANCH   8  11
HETATM   11  C   UNL     1       7.013  14.840  22.546  0.00  0.00     0.260 C 
HETATM   12  O   UNL     1       7.327  15.945  22.091  0.00  0.00    -0.267 OA
HETATM   13  N   UNL     1       7.643  13.634  22.170  0.00  0.00    -0.318 N 
HETATM   14  C   UNL     1       8.874  13.732  21.386  0.00  0.00     0.159 C 
BRANCH  13  15
HETATM   15  C   UNL     1       7.090  12.318  22.335  0.00  0.00     0.039 A 
HETATM   16  C   UNL     1       7.488  11.502  23.399  0.00  0.00     0.032 A 
HETATM   17  C   UNL     1       6.996  10.200  23.540  0.00  0.00     0.042 A 
HETATM   18  C   UNL     1       6.077   9.702  22.624  0.00  0.00     0.102 A 
HETATM   19  C   UNL     1       5.635  10.507  21.579  0.00  0.00     0.104 A 
HETATM   20  O   UNL     1       5.650   8.416  22.831  0.00  0.00    -0.346 OA
HETATM   21  C   UNL     1       6.116  11.819  21.448  0.00  0.00     0.069 A 
HETATM   22  O   UNL     1       4.729  10.079  20.638  0.00  0.00    -0.346 OA
HETATM   23  C   UNL     1       4.615   8.648  20.635  0.00  0.00     0.202 C 
HETATM   24  C   UNL     1       4.489   8.108  22.052  0.00  0.00     0.202 C 
ENDBRANCH  13  15
ENDBRANCH   8  11
BRANCH   9  25
HETATM   25  O   UNL     1       7.617  14.825  25.382  0.00  0.00    -0.360 OA
HETATM   26  H   UNL     1       7.856  15.684  25.795  0.00  0.00     0.217 HD
ENDBRANCH   9  25
BRANCH   1  27
HETATM   27  C   UNL     1       1.307  14.124  23.260  0.00  0.00     0.100 C 
BRANCH  27  28
HETATM   28  C   UNL     1       0.679  12.808  23.660  0.00  0.00    -0.052 A 
HETATM   29  C   UNL     1      -0.672  12.494  23.452  0.00  0.00     0.014 A 
HETATM   30  C   UNL     1      -1.218  11.304  23.951  0.00  0.00    -0.061 A 
HETATM   31  C   UNL     1      -2.703  11.097  23.949  0.00  0.00     0.048 C 
HETATM   32  C   UNL     1      -0.380  10.363  24.559  0.00  0.00     0.007 A 
HETATM   33  C   UNL     1       0.982  10.618  24.687  0.00  0.00     0.001 A 
HETATM   34  C   UNL     1       1.504  11.835  24.250  0.00  0.00     0.007 A 
ENDBRANCH  27  28
ENDBRANCH   1  27
TORSDOF 5
ENDMDL
