MODEL 1
REMARK VINA RESULT:    -8.972      0.000      0.000
REMARK INTER + INTRA:         -10.010
REMARK INTER:                  -9.717
REMARK INTRA:                  -0.293
REMARK UNBOUND:                -0.251
REMARK  2 active torsions:
REMARK  status: ('A' for Active; 'I' for Inactive)
REMARK    1  A    between atoms: C_8  and  N_9 
REMARK    2  A    between atoms: C_11  and  C_12 
REMARK       I    between atoms: C_12  and  N_14 
ROOT
HETATM    1  C   UNL     1      -2.052  16.077  21.212  0.00  0.00     0.016 A 
HETATM    2  C   UNL     1      -2.555  16.579  20.010  0.00  0.00     0.001 A 
HETATM    3  C   UNL     1      -3.722  16.044  19.488  0.00  0.00     0.002 A 
HETATM    4  C   UNL     1      -4.368  15.008  20.165  0.00  0.00     0.032 A 
HETATM    5  C   UNL     1      -3.884  14.493  21.362  0.00  0.00     0.072 A 
HETATM    6  C   UNL     1      -2.719  15.031  21.915  0.00  0.00     0.027 A 
HETATM    7  N   UNL     1      -4.563  13.486  21.920  0.00  0.00    -0.218 NA
HETATM    8  C   UNL     1      -4.113  12.986  23.067  0.00  0.00     0.200 A 
HETATM    9  N   UNL     1      -3.028  13.403  23.704  0.00  0.00    -0.212 NA
HETATM   10  C   UNL     1      -2.342  14.420  23.127  0.00  0.00     0.140 A 
ENDROOT
BRANCH  10  11
HETATM   11  C   UNL     1      -1.123  14.878  23.903  0.00  0.00     0.273 C 
HETATM   12  O   UNL     1      -1.270  15.530  24.937  0.00  0.00    -0.266 OA
HETATM   13  N   UNL     1       0.150  14.571  23.431  0.00  0.00    -0.342 N 
HETATM   14  C   UNL     1       1.362  14.975  24.143  0.00  0.00     0.139 C 
HETATM   15  C   UNL     1       0.481  13.855  22.209  0.00  0.00     0.161 C 
HETATM   16  C   UNL     1       2.380  15.211  23.029  0.00  0.00     0.056 C 
HETATM   17  C   UNL     1       1.886  14.281  21.942  0.00  0.00    -0.056 C 
HETATM   18  C   UNL     1       3.850  15.009  23.296  0.00  0.00    -0.020 C 
HETATM   19  C   UNL     1       2.689  13.883  20.941  0.00  0.00    -0.018 C 
HETATM   20  C   UNL     1       4.143  14.282  20.916  0.00  0.00     0.054 C 
HETATM   21  C   UNL     1       4.665  14.621  22.294  0.00  0.00    -0.026 C 
ENDBRANCH  10  11
BRANCH   8  22
HETATM   22  N   UNL     1      -4.793  11.911  23.595  0.00  0.00    -0.271 NA
HETATM   23  H   UNL     1      -4.973  11.233  22.867  0.00  0.00     0.127 HD
HETATM   24  H   UNL     1      -4.342  11.581  24.434  0.00  0.00     0.127 HD
ENDBRANCH   8  22
TORSDOF 2
ENDMDL
MODEL 2
REMARK VINA RESULT:    -8.206      3.497      6.100
REMARK INTER + INTRA:          -9.177
REMARK INTER:                  -8.697
REMARK INTRA:                  -0.480
REMARK UNBOUND:                -0.251
REMARK  2 active torsions:
REMARK  status: ('A' for Active; 'I' for Inactive)
REMARK    1  A    between atoms: C_8  and  N_9 
REMARK    2  A    between atoms: C_11  and  C_12 
REMARK       I    between atoms: C_12  and  N_14 
ROOT
HETATM    1  C   UNL     1      -1.597  10.582  23.556  0.00  0.00     0.016 A 
HETATM    2  C   UNL     1      -0.459   9.772  23.592  0.00  0.00     0.001 A 
HETATM    3  C   UNL     1       0.186   9.564  24.801  0.00  0.00     0.002 A 
HETATM    4  C   UNL     1      -0.304  10.174  25.957  0.00  0.00     0.032 A 
HETATM    5  C   UNL     1      -1.433  10.985  25.943  0.00  0.00     0.072 A 
HETATM    6  C   UNL     1      -2.109  11.194  24.737  0.00  0.00     0.027 A 
HETATM    7  N   UNL     1      -1.807  11.542  27.099  0.00  0.00    -0.218 NA
HETATM    8  C   UNL     1      -2.887  12.317  27.101  0.00  0.00     0.200 A 
HETATM    9  N   UNL     1      -3.626  12.595  26.035  0.00  0.00    -0.212 NA
HETATM   10  C   UNL     1      -3.234  12.032  24.866  0.00  0.00     0.140 A 
ENDROOT
BRANCH  10  11
HETATM   11  C   UNL     1      -4.121  12.358  23.681  0.00  0.00     0.273 C 
HETATM   12  O   UNL     1      -5.079  11.630  23.419  0.00  0.00    -0.266 OA
HETATM   13  N   UNL     1      -3.835  13.469  22.891  0.00  0.00    -0.342 N 
HETATM   14  C   UNL     1      -4.662  13.841  21.743  0.00  0.00     0.139 C 
HETATM   15  C   UNL     1      -2.719  14.388  23.044  0.00  0.00     0.161 C 
HETATM   16  C   UNL     1      -3.670  14.463  20.763  0.00  0.00     0.056 C 
HETATM   17  C   UNL     1      -2.599  14.999  21.689  0.00  0.00    -0.056 C 
HETATM   18  C   UNL     1      -4.133  15.519  19.792  0.00  0.00    -0.020 C 
HETATM   19  C   UNL     1      -1.738  15.950  21.289  0.00  0.00    -0.018 C 
HETATM   20  C   UNL     1      -1.866  16.579  19.925  0.00  0.00     0.054 C 
HETATM   21  C   UNL     1      -3.271  16.469  19.376  0.00  0.00    -0.026 C 
ENDBRANCH  10  11
BRANCH   8  22
HETATM   22  N   UNL     1      -3.222  12.928  28.289  0.00  0.00    -0.271 NA
HETATM   23  H   UNL     1      -2.427  13.442  28.642  0.00  0.00     0.127 HD
HETATM   24  H   UNL     1      -4.094  13.427  28.200  0.00  0.00     0.127 HD
ENDBRANCH   8  22
TORSDOF 2
ENDMDL
MODEL 3
REMARK VINA RESULT:    -8.060      3.259      6.036
REMARK INTER + INTRA:          -9.018
REMARK INTER:                  -8.584
REMARK INTRA:                  -0.435
REMARK UNBOUND:                -0.251
REMARK  2 active torsions:
REMARK  status: ('A' for Active; 'I' for Inactive)
REMARK    1  A    between atoms: C_8  and  N_9 
REMARK    2  A    between atoms: C_11  and  C_12 
REMARK       I    between atoms: C_12  and  N_14 
ROOT
HETATM    1  C   UNL     1      -0.172  11.631  25.024  0.00  0.00     0.016 A 
HETATM    2  C   UNL     1       0.601  10.473  25.138  0.00  0.00     0.001 A 
HETATM    3  C   UNL     1       0.089   9.381  25.820  0.00  0.00     0.002 A 
HETATM    4  C   UNL     1      -1.183   9.460  26.391  0.00  0.00     0.032 A 
HETATM    5  C   UNL     1      -1.968  10.603  26.290  0.00  0.00     0.072 A 
HETATM    6  C   UNL     1      -1.477  11.709  25.591  0.00  0.00     0.027 A 
HETATM    7  N   UNL     1      -3.162  10.587  26.891  0.00  0.00    -0.218 NA
HETATM    8  C   UNL     1      -3.924  11.672  26.800  0.00  0.00     0.200 A 
HETATM    9  N   UNL     1      -3.589  12.786  26.164  0.00  0.00    -0.212 NA
HETATM   10  C   UNL     1      -2.374  12.796  25.565  0.00  0.00     0.140 A 
ENDROOT
BRANCH  10  11
HETATM   11  C   UNL     1      -2.044  14.081  24.831  0.00  0.00     0.273 C 
HETATM   12  O   UNL     1      -1.515  15.011  25.439  0.00  0.00    -0.266 OA
HETATM   13  N   UNL     1      -2.357  14.201  23.479  0.00  0.00    -0.342 N 
HETATM   14  C   UNL     1      -2.051  15.411  22.715  0.00  0.00     0.139 C 
HETATM   15  C   UNL     1      -3.022  13.215  22.643  0.00  0.00     0.161 C 
HETATM   16  C   UNL     1      -3.179  15.491  21.689  0.00  0.00     0.056 C 
HETATM   17  C   UNL     1      -3.564  14.037  21.522  0.00  0.00    -0.056 C 
HETATM   18  C   UNL     1      -2.939  16.151  20.355  0.00  0.00    -0.020 C 
HETATM   19  C   UNL     1      -4.243  13.610  20.444  0.00  0.00    -0.018 C 
HETATM   20  C   UNL     1      -4.571  14.557  19.317  0.00  0.00     0.054 C 
HETATM   21  C   UNL     1      -3.626  15.736  19.270  0.00  0.00    -0.026 C 
ENDBRANCH  10  11
BRANCH   8  22
HETATM   22  N   UNL     1      -5.125  11.655  27.475  0.00  0.00    -0.271 NA
HETATM   23  H   UNL     1      -5.858  12.000  26.870  0.00  0.00     0.127 HD
HETATM   24  H   UNL     1      -5.273  10.761  27.918  0.00  0.00     0.127 HD
ENDBRANCH   8  22
TORSDOF 2
ENDMDL
MODEL 4
REMARK VINA RESULT:    -7.837      3.644      5.722
REMARK INTER + INTRA:          -8.776
REMARK INTER:                  -8.310
REMARK INTRA:                  -0.466
REMARK UNBOUND:                -0.251
REMARK  2 active torsions:
REMARK  status: ('A' for Active; 'I' for Inactive)
REMARK    1  A    between atoms: C_8  and  N_9 
REMARK    2  A    between atoms: C_11  and  C_12 
REMARK       I    between atoms: C_12  and  N_14 
ROOT
HETATM    1  C   UNL     1      -0.829  10.433  25.066  0.00  0.00     0.016 A 
HETATM    2  C   UNL     1       0.134   9.699  25.763  0.00  0.00     0.001 A 
HETATM    3  C   UNL     1      -0.127   9.307  27.066  0.00  0.00     0.002 A 
HETATM    4  C   UNL     1      -1.339   9.659  27.663  0.00  0.00     0.032 A 
HETATM    5  C   UNL     1      -2.310  10.390  26.988  0.00  0.00     0.072 A 
HETATM    6  C   UNL     1      -2.074  10.781  25.667  0.00  0.00     0.027 A 
HETATM    7  N   UNL     1      -3.426  10.697  27.655  0.00  0.00    -0.218 NA
HETATM    8  C   UNL     1      -4.365  11.392  27.020  0.00  0.00     0.200 A 
HETATM    9  N   UNL     1      -4.278  11.821  25.768  0.00  0.00    -0.212 NA
HETATM   10  C   UNL     1      -3.138  11.512  25.102  0.00  0.00     0.140 A 
ENDROOT
BRANCH  10  11
HETATM   11  C   UNL     1      -3.094  12.002  23.669  0.00  0.00     0.273 C 
HETATM   12  O   UNL     1      -3.629  11.337  22.782  0.00  0.00    -0.266 OA
HETATM   13  N   UNL     1      -2.434  13.191  23.367  0.00  0.00    -0.342 N 
HETATM   14  C   UNL     1      -2.369  13.720  22.005  0.00  0.00     0.139 C 
HETATM   15  C   UNL     1      -1.719  14.054  24.293  0.00  0.00     0.161 C 
HETATM   16  C   UNL     1      -1.017  14.427  21.951  0.00  0.00     0.056 C 
HETATM   17  C   UNL     1      -0.803  14.820  23.398  0.00  0.00    -0.056 C 
HETATM   18  C   UNL     1      -0.819  15.605  21.030  0.00  0.00    -0.020 C 
HETATM   19  C   UNL     1       0.063  15.788  23.741  0.00  0.00    -0.018 C 
HETATM   20  C   UNL     1       0.791  16.579  22.685  0.00  0.00     0.054 C 
HETATM   21  C   UNL     1       0.058  16.575  21.362  0.00  0.00    -0.026 C 
ENDBRANCH  10  11
BRANCH   8  22
HETATM   22  N   UNL     1      -5.482  11.748  27.743  0.00  0.00    -0.271 NA
HETATM   23  H   UNL     1      -5.780  10.967  28.312  0.00  0.00     0.127 HD
HETATM   24  H   UNL     1      -5.340  12.632  28.207  0.00  0.00     0.127 HD
ENDBRANCH   8  22
TORSDOF 2
ENDMDL
MODEL 5
REMARK VINA RESULT:    -7.811      3.242      4.761
REMARK INTER + INTRA:          -8.748
REMARK INTER:                  -8.266
REMARK INTRA:                  -0.482
REMARK UNBOUND:                -0.251
REMARK  2 active torsions:
REMARK  status: ('A' for Active; 'I' for Inactive)
REMARK    1  A    between atoms: C_8  and  N_9 
REMARK    2  A    between atoms: C_11  and  C_12 
REMARK       I    between atoms: C_12  and  N_14 
ROOT
HETATM    1  C   UNL     1      -1.460  15.153  23.233  0.00  0.00     0.016 A 
HETATM    2  C   UNL     1      -0.539  16.117  22.816  0.00  0.00     0.001 A 
HETATM    3  C   UNL     1      -0.585  16.579  21.511  0.00  0.00     0.002 A 
HETATM    4  C   UNL     1      -1.542  16.068  20.632  0.00  0.00     0.032 A 
HETATM    5  C   UNL     1      -2.467  15.107  21.025  0.00  0.00     0.072 A 
HETATM    6  C   UNL     1      -2.449  14.641  22.343  0.00  0.00     0.027 A 
HETATM    7  N   UNL     1      -3.327  14.664  20.103  0.00  0.00    -0.218 NA
HETATM    8  C   UNL     1      -4.220  13.749  20.466  0.00  0.00     0.200 A 
HETATM    9  N   UNL     1      -4.321  13.224  21.680  0.00  0.00    -0.212 NA
HETATM   10  C   UNL     1      -3.440  13.673  22.607  0.00  0.00     0.140 A 
ENDROOT
BRANCH  10  11
HETATM   11  C   UNL     1      -3.608  13.064  23.984  0.00  0.00     0.273 C 
HETATM   12  O   UNL     1      -4.372  13.591  24.793  0.00  0.00    -0.266 OA
HETATM   13  N   UNL     1      -2.886  11.924  24.326  0.00  0.00    -0.342 N 
HETATM   14  C   UNL     1      -3.017  11.283  25.635  0.00  0.00     0.139 C 
HETATM   15  C   UNL     1      -1.917  11.221  23.501  0.00  0.00     0.161 C 
HETATM   16  C   UNL     1      -1.628  10.710  25.903  0.00  0.00     0.056 C 
HETATM   17  C   UNL     1      -1.104  10.472  24.502  0.00  0.00    -0.056 C 
HETATM   18  C   UNL     1      -1.473   9.481  26.761  0.00  0.00    -0.020 C 
HETATM   19  C   UNL     1      -0.084   9.629  24.269  0.00  0.00    -0.018 C 
HETATM   20  C   UNL     1       0.518   8.821  25.390  0.00  0.00     0.054 C 
HETATM   21  C   UNL     1      -0.444   8.635  26.541  0.00  0.00    -0.026 C 
ENDBRANCH  10  11
BRANCH   8  22
HETATM   22  N   UNL     1      -5.058  13.264  19.487  0.00  0.00    -0.271 NA
HETATM   23  H   UNL     1      -5.841  12.789  19.915  0.00  0.00     0.127 HD
HETATM   24  H   UNL     1      -5.266  13.981  18.808  0.00  0.00     0.127 HD
ENDBRANCH   8  22
TORSDOF 2
ENDMDL
MODEL 6
REMARK VINA RESULT:    -7.705      3.126      4.763
REMARK INTER + INTRA:          -8.632
REMARK INTER:                  -8.149
REMARK INTRA:                  -0.482
REMARK UNBOUND:                -0.251
REMARK  2 active torsions:
REMARK  status: ('A' for Active; 'I' for Inactive)
REMARK    1  A    between atoms: C_8  and  N_9 
REMARK    2  A    between atoms: C_11  and  C_12 
REMARK       I    between atoms: C_12  and  N_14 
ROOT
HETATM    1  C   UNL     1      -0.095  10.312  23.606  0.00  0.00     0.016 A 
HETATM    2  C   UNL     1       0.167   9.008  24.033  0.00  0.00     0.001 A 
HETATM    3  C   UNL     1      -0.256   8.609  25.291  0.00  0.00     0.002 A 
HETATM    4  C   UNL     1      -0.926   9.517  26.113  0.00  0.00     0.032 A 
HETATM    5  C   UNL     1      -1.196  10.820  25.709  0.00  0.00     0.072 A 
HETATM    6  C   UNL     1      -0.793  11.237  24.437  0.00  0.00     0.027 A 
HETATM    7  N   UNL     1      -1.822  11.618  26.578  0.00  0.00    -0.218 NA
HETATM    8  C   UNL     1      -2.090  12.865  26.203  0.00  0.00     0.200 A 
HETATM    9  N   UNL     1      -1.773  13.391  25.028  0.00  0.00    -0.212 NA
HETATM   10  C   UNL     1      -1.131  12.576  24.155  0.00  0.00     0.140 A 
ENDROOT
BRANCH  10  11
HETATM   11  C   UNL     1      -0.811  13.212  22.818  0.00  0.00     0.273 C 
HETATM   12  O   UNL     1      -1.639  13.166  21.908  0.00  0.00    -0.266 OA
HETATM   13  N   UNL     1       0.423  13.828  22.625  0.00  0.00    -0.342 N 
HETATM   14  C   UNL     1       0.784  14.470  21.362  0.00  0.00     0.139 C 
HETATM   15  C   UNL     1       1.514  13.920  23.582  0.00  0.00     0.161 C 
HETATM   16  C   UNL     1       2.292  14.256  21.259  0.00  0.00     0.056 C 
HETATM   17  C   UNL     1       2.702  14.166  22.714  0.00  0.00    -0.056 C 
HETATM   18  C   UNL     1       3.145  15.249  20.511  0.00  0.00    -0.020 C 
HETATM   19  C   UNL     1       3.974  14.364  23.098  0.00  0.00    -0.018 C 
HETATM   20  C   UNL     1       5.025  14.770  22.096  0.00  0.00     0.054 C 
HETATM   21  C   UNL     1       4.427  15.445  20.883  0.00  0.00    -0.026 C 
ENDBRANCH  10  11
BRANCH   8  22
HETATM   22  N   UNL     1      -2.683  13.689  27.134  0.00  0.00    -0.271 NA
HETATM   23  H   UNL     1      -1.996  13.980  27.816  0.00  0.00     0.127 HD
HETATM   24  H   UNL     1      -3.220  14.412  26.680  0.00  0.00     0.127 HD
ENDBRANCH   8  22
TORSDOF 2
ENDMDL
MODEL 7
REMARK VINA RESULT:    -7.663      2.273      3.951
REMARK INTER + INTRA:          -8.587
REMARK INTER:                  -8.335
REMARK INTRA:                  -0.251
REMARK UNBOUND:                -0.251
REMARK  2 active torsions:
REMARK  status: ('A' for Active; 'I' for Inactive)
REMARK    1  A    between atoms: C_8  and  N_9 
REMARK    2  A    between atoms: C_11  and  C_12 
REMARK       I    between atoms: C_12  and  N_14 
ROOT
HETATM    1  C   UNL     1      -2.009  12.051  26.840  0.00  0.00     0.016 A 
HETATM    2  C   UNL     1      -2.659  10.966  27.432  0.00  0.00     0.001 A 
HETATM    3  C   UNL     1      -3.927  10.616  26.997  0.00  0.00     0.002 A 
HETATM    4  C   UNL     1      -4.537  11.358  25.984  0.00  0.00     0.032 A 
HETATM    5  C   UNL     1      -3.908  12.443  25.382  0.00  0.00     0.072 A 
HETATM    6  C   UNL     1      -2.622  12.801  25.794  0.00  0.00     0.027 A 
HETATM    7  N   UNL     1      -4.585  13.103  24.438  0.00  0.00    -0.218 NA
HETATM    8  C   UNL     1      -3.995  14.139  23.851  0.00  0.00     0.200 A 
HETATM    9  N   UNL     1      -2.779  14.584  24.138  0.00  0.00    -0.212 NA
HETATM   10  C   UNL     1      -2.103  13.914  25.102  0.00  0.00     0.140 A 
ENDROOT
BRANCH  10  11
HETATM   11  C   UNL     1      -0.709  14.442  25.378  0.00  0.00     0.273 C 
HETATM   12  O   UNL     1      -0.498  15.094  26.401  0.00  0.00    -0.266 OA
HETATM   13  N   UNL     1       0.314  14.199  24.465  0.00  0.00    -0.342 N 
HETATM   14  C   UNL     1       1.680  14.672  24.684  0.00  0.00     0.139 C 
HETATM   15  C   UNL     1       0.207  13.492  23.199  0.00  0.00     0.161 C 
HETATM   16  C   UNL     1       2.201  14.953  23.277  0.00  0.00     0.056 C 
HETATM   17  C   UNL     1       1.389  13.989  22.437  0.00  0.00    -0.056 C 
HETATM   18  C   UNL     1       3.674  14.831  22.980  0.00  0.00    -0.020 C 
HETATM   19  C   UNL     1       1.786  13.626  21.206  0.00  0.00    -0.018 C 
HETATM   20  C   UNL     1       3.104  14.102  20.651  0.00  0.00     0.054 C 
HETATM   21  C   UNL     1       4.080  14.479  21.742  0.00  0.00    -0.026 C 
ENDBRANCH  10  11
BRANCH   8  22
HETATM   22  N   UNL     1      -4.731  14.841  22.922  0.00  0.00    -0.271 NA
HETATM   23  H   UNL     1      -5.698  14.548  22.965  0.00  0.00     0.127 HD
HETATM   24  H   UNL     1      -4.544  15.830  22.992  0.00  0.00     0.127 HD
ENDBRANCH   8  22
TORSDOF 2
ENDMDL
MODEL 8
REMARK VINA RESULT:    -7.616      3.749      5.107
REMARK INTER + INTRA:          -8.535
REMARK INTER:                  -8.115
REMARK INTRA:                  -0.420
REMARK UNBOUND:                -0.251
REMARK  2 active torsions:
REMARK  status: ('A' for Active; 'I' for Inactive)
REMARK    1  A    between atoms: C_8  and  N_9 
REMARK    2  A    between atoms: C_11  and  C_12 
REMARK       I    between atoms: C_12  and  N_14 
ROOT
HETATM    1  C   UNL     1      -0.836  14.906  24.279  0.00  0.00     0.016 A 
HETATM    2  C   UNL     1       0.042  15.797  23.659  0.00  0.00     0.001 A 
HETATM    3  C   UNL     1      -0.300  16.343  22.432  0.00  0.00     0.002 A 
HETATM    4  C   UNL     1      -1.509  15.986  21.833  0.00  0.00     0.032 A 
HETATM    5  C   UNL     1      -2.398  15.100  22.431  0.00  0.00     0.072 A 
HETATM    6  C   UNL     1      -2.079  14.552  23.677  0.00  0.00     0.027 A 
HETATM    7  N   UNL     1      -3.518  14.805  21.765  0.00  0.00    -0.218 NA
HETATM    8  C   UNL     1      -4.378  13.961  22.328  0.00  0.00     0.200 A 
HETATM    9  N   UNL     1      -4.208  13.374  23.504  0.00  0.00    -0.212 NA
HETATM   10  C   UNL     1      -3.065  13.673  24.169  0.00  0.00     0.140 A 
ENDROOT
BRANCH  10  11
HETATM   11  C   UNL     1      -2.926  12.998  25.519  0.00  0.00     0.273 C 
HETATM   12  O   UNL     1      -3.225  13.614  26.541  0.00  0.00    -0.266 OA
HETATM   13  N   UNL     1      -2.446  11.693  25.590  0.00  0.00    -0.342 N 
HETATM   14  C   UNL     1      -2.302  10.985  26.861  0.00  0.00     0.139 C 
HETATM   15  C   UNL     1      -2.009  10.859  24.481  0.00  0.00     0.161 C 
HETATM   16  C   UNL     1      -1.094  10.077  26.641  0.00  0.00     0.056 C 
HETATM   17  C   UNL     1      -1.133   9.851  25.145  0.00  0.00    -0.056 C 
HETATM   18  C   UNL     1      -0.986   8.773  27.389  0.00  0.00    -0.020 C 
HETATM   19  C   UNL     1      -0.493   8.815  24.575  0.00  0.00    -0.018 C 
HETATM   20  C   UNL     1       0.216   7.789  25.422  0.00  0.00     0.054 C 
HETATM   21  C   UNL     1      -0.335   7.732  26.829  0.00  0.00    -0.026 C 
ENDBRANCH  10  11
BRANCH   8  22
HETATM   22  N   UNL     1      -5.498  13.626  21.600  0.00  0.00    -0.271 NA
HETATM   23  H   UNL     1      -6.187  14.361  21.680  0.00  0.00     0.127 HD
HETATM   24  H   UNL     1      -5.243  13.329  20.670  0.00  0.00     0.127 HD
ENDBRANCH   8  22
TORSDOF 2
ENDMDL
MODEL 9
REMARK VINA RESULT:    -7.574      3.253      5.885
REMARK INTER + INTRA:          -8.489
REMARK INTER:                  -8.027
REMARK INTRA:                  -0.462
REMARK UNBOUND:                -0.251
REMARK  2 active torsions:
REMARK  status: ('A' for Active; 'I' for Inactive)
REMARK    1  A    between atoms: C_8  and  N_9 
REMARK    2  A    between atoms: C_11  and  C_12 
REMARK       I    between atoms: C_12  and  N_14 
ROOT
HETATM    1  C   UNL     1      -1.713  13.011  25.824  0.00  0.00     0.016 A 
HETATM    2  C   UNL     1      -2.501  12.923  26.974  0.00  0.00     0.001 A 
HETATM    3  C   UNL     1      -2.750  11.679  27.532  0.00  0.00     0.002 A 
HETATM    4  C   UNL     1      -2.219  10.537  26.932  0.00  0.00     0.032 A 
HETATM    5  C   UNL     1      -1.433  10.601  25.786  0.00  0.00     0.072 A 
HETATM    6  C   UNL     1      -1.156  11.847  25.218  0.00  0.00     0.027 A 
HETATM    7  N   UNL     1      -0.991   9.448  25.275  0.00  0.00    -0.218 NA
HETATM    8  C   UNL     1      -0.236   9.495  24.182  0.00  0.00     0.200 A 
HETATM    9  N   UNL     1       0.110  10.605  23.544  0.00  0.00    -0.212 NA
HETATM   10  C   UNL     1      -0.349  11.769  24.065  0.00  0.00     0.140 A 
ENDROOT
BRANCH  10  11
HETATM   11  C   UNL     1       0.091  13.011  23.317  0.00  0.00     0.273 C 
HETATM   12  O   UNL     1       1.200  13.496  23.542  0.00  0.00    -0.266 OA
HETATM   13  N   UNL     1      -0.770  13.601  22.395  0.00  0.00    -0.342 N 
HETATM   14  C   UNL     1      -0.395  14.793  21.634  0.00  0.00     0.139 C 
HETATM   15  C   UNL     1      -2.119  13.176  22.060  0.00  0.00     0.161 C 
HETATM   16  C   UNL     1      -1.715  15.536  21.445  0.00  0.00     0.056 C 
HETATM   17  C   UNL     1      -2.725  14.409  21.481  0.00  0.00    -0.056 C 
HETATM   18  C   UNL     1      -1.919  16.415  20.236  0.00  0.00    -0.020 C 
HETATM   19  C   UNL     1      -3.961  14.558  20.975  0.00  0.00    -0.018 C 
HETATM   20  C   UNL     1      -4.356  15.832  20.271  0.00  0.00     0.054 C 
HETATM   21  C   UNL     1      -3.159  16.579  19.729  0.00  0.00    -0.026 C 
ENDBRANCH  10  11
BRANCH   8  22
HETATM   22  N   UNL     1       0.160   8.293  23.638  0.00  0.00    -0.271 NA
HETATM   23  H   UNL     1       0.276   8.395  22.639  0.00  0.00     0.127 HD
HETATM   24  H   UNL     1       0.934   7.905  24.157  0.00  0.00     0.127 HD
ENDBRANCH   8  22
TORSDOF 2
ENDMDL
