REMARK  8 active torsions:
REMARK  status: ('A' for Active; 'I' for Inactive)
REMARK       I    between atoms: C_2  and  N_3 
REMARK    1  A    between atoms: C_2  and  C_18 
REMARK    2  A    between atoms: N_3  and  C_4 
REMARK    3  A    between atoms: C_4  and  C_5 
REMARK    4  A    between atoms: C_7  and  C_8 
REMARK    5  A    between atoms: C_19  and  O_20 
REMARK    6  A    between atoms: C_22  and  O_23 
REMARK    7  A    between atoms: C_24  and  C_25 
REMARK    8  A    between atoms: N_26  and  C_27 
ROOT
HETATM    1  C   UNL     1       2.875   0.844   1.302  0.00  0.00     0.066 A 
HETATM    2  C   UNL     1       2.230   2.092   1.208  0.00  0.00     0.084 A 
HETATM    3  C   UNL     1       2.705   3.222   1.874  0.00  0.00     0.075 A 
HETATM    4  C   UNL     1       3.878   3.148   2.622  0.00  0.00     0.082 A 
HETATM    5  C   UNL     1       4.529   1.926   2.788  0.00  0.00     0.046 A 
HETATM    6  C   UNL     1       3.981   0.767   2.161  0.00  0.00     0.038 A 
ENDROOT
BRANCH   1   7
HETATM    7  C   UNL     1       2.313  -0.287   0.484  0.00  0.00     0.256 C 
HETATM    8  O   UNL     1       1.087  -0.236   0.313  0.00  0.00    -0.267 OA
HETATM    9  N   UNL     1       3.077  -1.273  -0.154  0.00  0.00    -0.348 N 
HETATM   10  C   UNL     1       4.529  -1.399  -0.159  0.00  0.00     0.153 C 
BRANCH   9  11
HETATM   11  C   UNL     1       2.386  -2.127  -1.158  0.00  0.00     0.164 C 
BRANCH  11  12
HETATM   12  C   UNL     1       2.613  -1.593  -2.564  0.00  0.00    -0.039 C 
HETATM   13  C   UNL     1       2.017  -0.380  -2.956  0.00  0.00     0.021 C 
HETATM   14  C   UNL     1       2.448   0.329  -4.093  0.00  0.00    -0.022 C 
HETATM   15  C   UNL     1       3.446  -0.276  -4.879  0.00  0.00     0.012 C 
HETATM   16  C   UNL     1       3.958  -1.540  -4.570  0.00  0.00     0.001 C 
HETATM   17  C   UNL     1       3.542  -2.198  -3.417  0.00  0.00     0.009 C 
BRANCH  14  18
HETATM   18  C   UNL     1       1.937   1.680  -4.406  0.00  0.00     0.009 A 
HETATM   19  C   UNL     1       1.462   2.566  -3.448  0.00  0.00     0.131 A 
HETATM   20  N   UNL     1       1.032   3.825  -3.695  0.00  0.00    -0.253 NA
HETATM   21  C   UNL     1       1.090   4.216  -4.973  0.00  0.00     0.232 A 
HETATM   22  N   UNL     1       1.517   3.472  -6.000  0.00  0.00    -0.253 NA
HETATM   23  C   UNL     1       1.924   2.220  -5.684  0.00  0.00     0.131 A 
ENDBRANCH  14  18
ENDBRANCH  11  12
ENDBRANCH   9  11
ENDBRANCH   1   7
BRANCH   2  24
HETATM   24  O   UNL     1       1.110   2.304   0.440  0.00  0.00    -0.360 OA
HETATM   25  H   UNL     1       0.738   1.423   0.208  0.00  0.00     0.217 HD
ENDBRANCH   2  24
BRANCH   5  26
HETATM   26  C   UNL     1       5.918   1.820   3.319  0.00  0.00     0.172 A 
HETATM   27  N   UNL     1       6.547   2.611   4.251  0.00  0.00    -0.244 N 
HETATM   28  C   UNL     1       7.885   2.253   4.174  0.00  0.00     0.349 A 
HETATM   29  O   UNL     1       8.866   2.692   4.752  0.00  0.00    -0.245 OA
HETATM   30  N   UNL     1       7.946   1.213   3.267  0.00  0.00    -0.226 N 
HETATM   31  N   UNL     1       6.724   0.960   2.737  0.00  0.00    -0.151 NA
HETATM   32  H   UNL     1       8.797   0.769   2.952  0.00  0.00     0.194 HD
BRANCH  27  33
HETATM   33  C   UNL     1       6.127   3.574   5.212  0.00  0.00     0.051 C 
HETATM   34  C   UNL     1       5.181   3.339   6.227  0.00  0.00    -0.035 C 
HETATM   35  C   UNL     1       4.279   2.146   6.320  0.00  0.00     0.050 C 
HETATM   36  C   UNL     1       5.121   4.240   7.317  0.00  0.00     0.009 C 
HETATM   37  C   UNL     1       5.877   5.412   7.351  0.00  0.00     0.001 C 
HETATM   38  C   UNL     1       6.709   5.712   6.287  0.00  0.00     0.002 C 
HETATM   39  C   UNL     1       6.852   4.788   5.251  0.00  0.00     0.031 C 
ENDBRANCH  27  33
ENDBRANCH   5  26
BRANCH   4  40
HETATM   40  O   UNL     1       4.402   4.304   3.115  0.00  0.00    -0.360 OA
HETATM   41  H   UNL     1       3.846   5.062   2.865  0.00  0.00     0.217 HD
ENDBRANCH   4  40
TORSDOF 8
