MODEL 1
REMARK VINA RESULT:    -7.974      0.000      0.000
REMARK INTER + INTRA:          -9.342
REMARK INTER:                  -8.864
REMARK INTRA:                  -0.478
REMARK UNBOUND:                -0.436
REMARK  3 active torsions:
REMARK  status: ('A' for Active; 'I' for Inactive)
REMARK    1  A    between atoms: C_8  and  N_9 
REMARK    2  A    between atoms: C_11  and  C_12 
REMARK       I    between atoms: C_12  and  N_14 
REMARK    3  A    between atoms: C_20  and  O_21 
ROOT
HETATM    1  C   UNL     1      -0.174   9.158  26.523  0.00  0.00     0.016 A 
HETATM    2  C   UNL     1       0.502   8.142  27.201  0.00  0.00     0.001 A 
HETATM    3  C   UNL     1      -0.033   7.640  28.378  0.00  0.00     0.002 A 
HETATM    4  C   UNL     1      -1.222   8.176  28.875  0.00  0.00     0.032 A 
HETATM    5  C   UNL     1      -1.895   9.209  28.228  0.00  0.00     0.072 A 
HETATM    6  C   UNL     1      -1.392   9.698  27.021  0.00  0.00     0.027 A 
HETATM    7  N   UNL     1      -2.990   9.699  28.817  0.00  0.00    -0.218 NA
HETATM    8  C   UNL     1      -3.631  10.697  28.217  0.00  0.00     0.200 A 
HETATM    9  N   UNL     1      -3.307  11.208  27.039  0.00  0.00    -0.212 NA
HETATM   10  C   UNL     1      -2.180  10.719  26.459  0.00  0.00     0.140 A 
ENDROOT
BRANCH  10  11
HETATM   11  C   UNL     1      -1.823  11.371  25.140  0.00  0.00     0.273 C 
HETATM   12  O   UNL     1      -2.324  10.962  24.095  0.00  0.00    -0.266 OA
HETATM   13  N   UNL     1      -0.905  12.422  25.119  0.00  0.00    -0.342 N 
HETATM   14  C   UNL     1      -0.520  13.079  23.873  0.00  0.00     0.139 C 
HETATM   15  C   UNL     1      -0.200  12.980  26.256  0.00  0.00     0.161 C 
HETATM   16  C   UNL     1       0.942  13.449  24.114  0.00  0.00     0.057 C 
HETATM   17  C   UNL     1       0.991  13.627  25.615  0.00  0.00    -0.050 C 
HETATM   18  C   UNL     1       1.567  14.631  23.427  0.00  0.00    -0.013 C 
HETATM   19  C   UNL     1       1.966  14.301  26.240  0.00  0.00     0.041 C 
HETATM   20  C   UNL     1       2.997  14.973  25.406  0.00  0.00     0.065 C 
HETATM   21  C   UNL     1       2.571  15.316  24.010  0.00  0.00     0.033 C 
BRANCH  20  22
HETATM   22  O   UNL     1       4.158  15.256  25.891  0.00  0.00    -0.361 OA
HETATM   23  H   UNL     1       4.531  16.093  25.527  0.00  0.00     0.217 HD
ENDBRANCH  20  22
ENDBRANCH  10  11
BRANCH   8  24
HETATM   24  N   UNL     1      -4.697  11.259  28.887  0.00  0.00    -0.271 NA
HETATM   25  H   UNL     1      -4.507  12.238  29.060  0.00  0.00     0.127 HD
HETATM   26  H   UNL     1      -4.965  10.702  29.685  0.00  0.00     0.127 HD
ENDBRANCH   8  24
TORSDOF 3
ENDMDL
MODEL 2
REMARK VINA RESULT:    -7.448      7.446     11.187
REMARK INTER + INTRA:          -8.754
REMARK INTER:                  -8.460
REMARK INTRA:                  -0.295
REMARK UNBOUND:                -0.436
REMARK  3 active torsions:
REMARK  status: ('A' for Active; 'I' for Inactive)
REMARK    1  A    between atoms: C_8  and  N_9 
REMARK    2  A    between atoms: C_11  and  C_12 
REMARK       I    between atoms: C_12  and  N_14 
REMARK    3  A    between atoms: C_20  and  O_21 
ROOT
HETATM    1  C   UNL     1       9.461  11.665  22.698  0.00  0.00     0.016 A 
HETATM    2  C   UNL     1       9.689  10.496  21.970  0.00  0.00     0.001 A 
HETATM    3  C   UNL     1      10.292  10.578  20.724  0.00  0.00     0.002 A 
HETATM    4  C   UNL     1      10.637  11.830  20.210  0.00  0.00     0.032 A 
HETATM    5  C   UNL     1      10.392  13.009  20.908  0.00  0.00     0.072 A 
HETATM    6  C   UNL     1       9.823  12.940  22.181  0.00  0.00     0.027 A 
HETATM    7  N   UNL     1      10.698  14.161  20.303  0.00  0.00    -0.218 NA
HETATM    8  C   UNL     1      10.453  15.294  20.953  0.00  0.00     0.200 A 
HETATM    9  N   UNL     1       9.983  15.374  22.190  0.00  0.00    -0.212 NA
HETATM   10  C   UNL     1       9.654  14.199  22.786  0.00  0.00     0.140 A 
ENDROOT
BRANCH  10  11
HETATM   11  C   UNL     1       9.074  14.347  24.177  0.00  0.00     0.273 C 
HETATM   12  O   UNL     1       9.744  14.036  25.161  0.00  0.00    -0.266 OA
HETATM   13  N   UNL     1       7.769  14.815  24.332  0.00  0.00    -0.342 N 
HETATM   14  C   UNL     1       7.160  14.967  25.650  0.00  0.00     0.139 C 
HETATM   15  C   UNL     1       6.846  15.174  23.273  0.00  0.00     0.161 C 
HETATM   16  C   UNL     1       5.690  14.640  25.392  0.00  0.00     0.057 C 
HETATM   17  C   UNL     1       5.513  15.050  23.948  0.00  0.00    -0.050 C 
HETATM   18  C   UNL     1       4.602  15.236  26.241  0.00  0.00    -0.013 C 
HETATM   19  C   UNL     1       4.314  15.287  23.397  0.00  0.00     0.041 C 
HETATM   20  C   UNL     1       3.116  15.224  24.275  0.00  0.00     0.065 C 
HETATM   21  C   UNL     1       3.375  15.460  25.732  0.00  0.00     0.033 C 
BRANCH  20  22
HETATM   22  O   UNL     1       1.944  15.010  23.780  0.00  0.00    -0.361 OA
HETATM   23  H   UNL     1       1.402  14.398  24.330  0.00  0.00     0.217 HD
ENDBRANCH  20  22
ENDBRANCH  10  11
BRANCH   8  24
HETATM   24  N   UNL     1      10.678  16.474  20.277  0.00  0.00    -0.271 NA
HETATM   25  H   UNL     1      10.002  16.567  19.528  0.00  0.00     0.127 HD
HETATM   26  H   UNL     1      11.650  16.573  20.024  0.00  0.00     0.127 HD
ENDBRANCH   8  24
TORSDOF 3
ENDMDL
MODEL 3
REMARK VINA RESULT:    -7.401      4.051      8.016
REMARK INTER + INTRA:          -8.702
REMARK INTER:                  -8.491
REMARK INTRA:                  -0.211
REMARK UNBOUND:                -0.436
REMARK  3 active torsions:
REMARK  status: ('A' for Active; 'I' for Inactive)
REMARK    1  A    between atoms: C_8  and  N_9 
REMARK    2  A    between atoms: C_11  and  C_12 
REMARK       I    between atoms: C_12  and  N_14 
REMARK    3  A    between atoms: C_20  and  O_21 
ROOT
HETATM    1  C   UNL     1       4.322  14.248  24.276  0.00  0.00     0.016 A 
HETATM    2  C   UNL     1       4.926  15.502  24.169  0.00  0.00     0.001 A 
HETATM    3  C   UNL     1       5.950  15.686  23.253  0.00  0.00     0.002 A 
HETATM    4  C   UNL     1       6.376  14.609  22.473  0.00  0.00     0.032 A 
HETATM    5  C   UNL     1       5.806  13.344  22.586  0.00  0.00     0.072 A 
HETATM    6  C   UNL     1       4.745  13.152  23.474  0.00  0.00     0.027 A 
HETATM    7  N   UNL     1       6.326  12.362  21.843  0.00  0.00    -0.218 NA
HETATM    8  C   UNL     1       5.801  11.147  21.955  0.00  0.00     0.200 A 
HETATM    9  N   UNL     1       4.751  10.838  22.703  0.00  0.00    -0.212 NA
HETATM   10  C   UNL     1       4.244  11.838  23.471  0.00  0.00     0.140 A 
ENDROOT
BRANCH  10  11
HETATM   11  C   UNL     1       3.080  11.423  24.345  0.00  0.00     0.273 C 
HETATM   12  O   UNL     1       3.261  10.664  25.295  0.00  0.00    -0.266 OA
HETATM   13  N   UNL     1       1.798  11.891  24.050  0.00  0.00    -0.342 N 
HETATM   14  C   UNL     1       0.640  11.515  24.856  0.00  0.00     0.139 C 
HETATM   15  C   UNL     1       1.422  12.749  22.944  0.00  0.00     0.161 C 
HETATM   16  C   UNL     1      -0.491  11.460  23.831  0.00  0.00     0.057 C 
HETATM   17  C   UNL     1      -0.042  12.464  22.794  0.00  0.00    -0.050 C 
HETATM   18  C   UNL     1      -1.916  11.725  24.232  0.00  0.00    -0.013 C 
HETATM   19  C   UNL     1      -0.876  13.018  21.902  0.00  0.00     0.041 C 
HETATM   20  C   UNL     1      -2.322  12.688  22.000  0.00  0.00     0.065 C 
HETATM   21  C   UNL     1      -2.792  12.252  23.354  0.00  0.00     0.033 C 
BRANCH  20  22
HETATM   22  O   UNL     1      -3.098  12.810  20.976  0.00  0.00    -0.361 OA
HETATM   23  H   UNL     1      -3.691  12.033  20.850  0.00  0.00     0.217 HD
ENDBRANCH  20  22
ENDBRANCH  10  11
BRANCH   8  24
HETATM   24  N   UNL     1       6.414  10.125  21.261  0.00  0.00    -0.271 NA
HETATM   25  H   UNL     1       6.658  10.449  20.333  0.00  0.00     0.127 HD
HETATM   26  H   UNL     1       5.880   9.271  21.316  0.00  0.00     0.127 HD
ENDBRANCH   8  24
TORSDOF 3
ENDMDL
MODEL 4
REMARK VINA RESULT:    -7.392      6.668      9.694
REMARK INTER + INTRA:          -8.692
REMARK INTER:                  -8.255
REMARK INTRA:                  -0.437
REMARK UNBOUND:                -0.436
REMARK  3 active torsions:
REMARK  status: ('A' for Active; 'I' for Inactive)
REMARK    1  A    between atoms: C_8  and  N_9 
REMARK    2  A    between atoms: C_11  and  C_12 
REMARK       I    between atoms: C_12  and  N_14 
REMARK    3  A    between atoms: C_20  and  O_21 
ROOT
HETATM    1  C   UNL     1       3.889  13.514  23.810  0.00  0.00     0.016 A 
HETATM    2  C   UNL     1       3.278  14.769  23.835  0.00  0.00     0.001 A 
HETATM    3  C   UNL     1       4.047  15.903  23.621  0.00  0.00     0.002 A 
HETATM    4  C   UNL     1       5.421  15.771  23.410  0.00  0.00     0.032 A 
HETATM    5  C   UNL     1       6.053  14.530  23.410  0.00  0.00     0.072 A 
HETATM    6  C   UNL     1       5.287  13.376  23.583  0.00  0.00     0.027 A 
HETATM    7  N   UNL     1       7.382  14.513  23.265  0.00  0.00    -0.218 NA
HETATM    8  C   UNL     1       7.998  13.336  23.281  0.00  0.00     0.200 A 
HETATM    9  N   UNL     1       7.390  12.161  23.365  0.00  0.00    -0.212 NA
HETATM   10  C   UNL     1       6.043  12.191  23.535  0.00  0.00     0.140 A 
ENDROOT
BRANCH  10  11
HETATM   11  C   UNL     1       5.402  10.827  23.678  0.00  0.00     0.273 C 
HETATM   12  O   UNL     1       5.293  10.309  24.789  0.00  0.00    -0.266 OA
HETATM   13  N   UNL     1       4.959  10.153  22.539  0.00  0.00    -0.342 N 
HETATM   14  C   UNL     1       4.342   8.832  22.621  0.00  0.00     0.139 C 
HETATM   15  C   UNL     1       5.060  10.610  21.167  0.00  0.00     0.161 C 
HETATM   16  C   UNL     1       4.796   8.157  21.328  0.00  0.00     0.057 C 
HETATM   17  C   UNL     1       4.970   9.331  20.391  0.00  0.00    -0.050 C 
HETATM   18  C   UNL     1       3.964   7.087  20.677  0.00  0.00    -0.013 C 
HETATM   19  C   UNL     1       5.003   9.203  19.056  0.00  0.00     0.041 C 
HETATM   20  C   UNL     1       4.774   7.853  18.478  0.00  0.00     0.065 C 
HETATM   21  C   UNL     1       3.994   6.908  19.342  0.00  0.00     0.033 C 
BRANCH  20  22
HETATM   22  O   UNL     1       5.202   7.558  17.297  0.00  0.00    -0.361 OA
HETATM   23  H   UNL     1       4.732   8.053  16.585  0.00  0.00     0.217 HD
ENDBRANCH  20  22
ENDBRANCH  10  11
BRANCH   8  24
HETATM   24  N   UNL     1       9.376  13.341  23.234  0.00  0.00    -0.271 NA
HETATM   25  H   UNL     1       9.682  13.059  22.310  0.00  0.00     0.127 HD
HETATM   26  H   UNL     1       9.772  12.840  24.015  0.00  0.00     0.127 HD
ENDBRANCH   8  24
TORSDOF 3
ENDMDL
MODEL 5
REMARK VINA RESULT:    -7.383      6.887      8.324
REMARK INTER + INTRA:          -8.683
REMARK INTER:                  -8.298
REMARK INTRA:                  -0.384
REMARK UNBOUND:                -0.436
REMARK  3 active torsions:
REMARK  status: ('A' for Active; 'I' for Inactive)
REMARK    1  A    between atoms: C_8  and  N_9 
REMARK    2  A    between atoms: C_11  and  C_12 
REMARK       I    between atoms: C_12  and  N_14 
REMARK    3  A    between atoms: C_20  and  O_21 
ROOT
HETATM    1  C   UNL     1       7.312   9.135  23.558  0.00  0.00     0.016 A 
HETATM    2  C   UNL     1       7.481   8.061  24.434  0.00  0.00     0.001 A 
HETATM    3  C   UNL     1       6.953   6.823  24.101  0.00  0.00     0.002 A 
HETATM    4  C   UNL     1       6.241   6.679  22.909  0.00  0.00     0.032 A 
HETATM    5  C   UNL     1       6.038   7.744  22.036  0.00  0.00     0.072 A 
HETATM    6  C   UNL     1       6.598   8.987  22.336  0.00  0.00     0.027 A 
HETATM    7  N   UNL     1       5.287   7.522  20.952  0.00  0.00    -0.218 NA
HETATM    8  C   UNL     1       5.072   8.536  20.121  0.00  0.00     0.200 A 
HETATM    9  N   UNL     1       5.599   9.746  20.245  0.00  0.00    -0.212 NA
HETATM   10  C   UNL     1       6.340   9.968  21.361  0.00  0.00     0.140 A 
ENDROOT
BRANCH  10  11
HETATM   11  C   UNL     1       6.877  11.378  21.483  0.00  0.00     0.273 C 
HETATM   12  O   UNL     1       8.049  11.619  21.202  0.00  0.00    -0.266 OA
HETATM   13  N   UNL     1       6.037  12.395  21.939  0.00  0.00    -0.342 N 
HETATM   14  C   UNL     1       6.507  13.771  22.083  0.00  0.00     0.139 C 
HETATM   15  C   UNL     1       4.654  12.259  22.350  0.00  0.00     0.161 C 
HETATM   16  C   UNL     1       5.723  14.279  23.291  0.00  0.00     0.057 C 
HETATM   17  C   UNL     1       4.455  13.458  23.227  0.00  0.00    -0.050 C 
HETATM   18  C   UNL     1       5.393  15.738  23.445  0.00  0.00    -0.013 C 
HETATM   19  C   UNL     1       3.325  13.806  23.860  0.00  0.00     0.041 C 
HETATM   20  C   UNL     1       3.301  15.103  24.585  0.00  0.00     0.065 C 
HETATM   21  C   UNL     1       4.282  16.128  24.101  0.00  0.00     0.033 C 
BRANCH  20  22
HETATM   22  O   UNL     1       2.460  15.311  25.540  0.00  0.00    -0.361 OA
HETATM   23  H   UNL     1       1.633  14.783  25.444  0.00  0.00     0.217 HD
ENDBRANCH  20  22
ENDBRANCH  10  11
BRANCH   8  24
HETATM   24  N   UNL     1       4.213   8.318  19.064  0.00  0.00    -0.271 NA
HETATM   25  H   UNL     1       4.681   8.551  18.197  0.00  0.00     0.127 HD
HETATM   26  H   UNL     1       3.316   8.750  19.225  0.00  0.00     0.127 HD
ENDBRANCH   8  24
TORSDOF 3
ENDMDL
MODEL 6
REMARK VINA RESULT:    -7.350      7.130      9.420
REMARK INTER + INTRA:          -8.645
REMARK INTER:                  -8.158
REMARK INTRA:                  -0.488
REMARK UNBOUND:                -0.436
REMARK  3 active torsions:
REMARK  status: ('A' for Active; 'I' for Inactive)
REMARK    1  A    between atoms: C_8  and  N_9 
REMARK    2  A    between atoms: C_11  and  C_12 
REMARK       I    between atoms: C_12  and  N_14 
REMARK    3  A    between atoms: C_20  and  O_21 
ROOT
HETATM    1  C   UNL     1       4.537  14.682  23.289  0.00  0.00     0.016 A 
HETATM    2  C   UNL     1       3.447  15.346  23.855  0.00  0.00     0.001 A 
HETATM    3  C   UNL     1       3.559  15.867  25.135  0.00  0.00     0.002 A 
HETATM    4  C   UNL     1       4.750  15.696  25.843  0.00  0.00     0.032 A 
HETATM    5  C   UNL     1       5.838  15.012  25.307  0.00  0.00     0.072 A 
HETATM    6  C   UNL     1       5.755  14.517  24.004  0.00  0.00     0.027 A 
HETATM    7  N   UNL     1       6.910  14.844  26.088  0.00  0.00    -0.218 NA
HETATM    8  C   UNL     1       7.947  14.178  25.593  0.00  0.00     0.200 A 
HETATM    9  N   UNL     1       8.032  13.716  24.353  0.00  0.00    -0.212 NA
HETATM   10  C   UNL     1       6.930  13.872  23.576  0.00  0.00     0.140 A 
ENDROOT
BRANCH  10  11
HETATM   11  C   UNL     1       7.058  13.283  22.187  0.00  0.00     0.273 C 
HETATM   12  O   UNL     1       7.524  13.959  21.271  0.00  0.00    -0.266 OA
HETATM   13  N   UNL     1       6.622  11.979  21.950  0.00  0.00    -0.342 N 
HETATM   14  C   UNL     1       6.715  11.367  20.627  0.00  0.00     0.139 C 
HETATM   15  C   UNL     1       6.011  11.082  22.911  0.00  0.00     0.161 C 
HETATM   16  C   UNL     1       5.483  10.466  20.576  0.00  0.00     0.057 C 
HETATM   17  C   UNL     1       5.271  10.119  22.032  0.00  0.00    -0.050 C 
HETATM   18  C   UNL     1       5.468   9.219  19.735  0.00  0.00    -0.013 C 
HETATM   19  C   UNL     1       4.538   9.071  22.435  0.00  0.00     0.041 C 
HETATM   20  C   UNL     1       3.983   8.165  21.396  0.00  0.00     0.065 C 
HETATM   21  C   UNL     1       4.720   8.157  20.091  0.00  0.00     0.033 C 
BRANCH  20  22
HETATM   22  O   UNL     1       2.955   7.426  21.644  0.00  0.00    -0.361 OA
HETATM   23  H   UNL     1       2.103   7.863  21.406  0.00  0.00     0.217 HD
ENDBRANCH  20  22
ENDBRANCH  10  11
BRANCH   8  24
HETATM   24  N   UNL     1       9.002  13.924  26.444  0.00  0.00    -0.271 NA
HETATM   25  H   UNL     1       8.699  14.049  27.401  0.00  0.00     0.127 HD
HETATM   26  H   UNL     1       9.830  14.426  26.162  0.00  0.00     0.127 HD
ENDBRANCH   8  24
TORSDOF 3
ENDMDL
MODEL 7
REMARK VINA RESULT:    -7.346      1.462      2.001
REMARK INTER + INTRA:          -8.641
REMARK INTER:                  -8.159
REMARK INTRA:                  -0.482
REMARK UNBOUND:                -0.436
REMARK  3 active torsions:
REMARK  status: ('A' for Active; 'I' for Inactive)
REMARK    1  A    between atoms: C_8  and  N_9 
REMARK    2  A    between atoms: C_11  and  C_12 
REMARK       I    between atoms: C_12  and  N_14 
REMARK    3  A    between atoms: C_20  and  O_21 
ROOT
HETATM    1  C   UNL     1       1.003   9.518  24.693  0.00  0.00     0.016 A 
HETATM    2  C   UNL     1       1.559   8.255  24.905  0.00  0.00     0.001 A 
HETATM    3  C   UNL     1       1.031   7.438  25.893  0.00  0.00     0.002 A 
HETATM    4  C   UNL     1      -0.029   7.904  26.675  0.00  0.00     0.032 A 
HETATM    5  C   UNL     1      -0.577   9.171  26.498  0.00  0.00     0.072 A 
HETATM    6  C   UNL     1      -0.085   9.989  25.480  0.00  0.00     0.027 A 
HETATM    7  N   UNL     1      -1.545   9.550  27.339  0.00  0.00    -0.218 NA
HETATM    8  C   UNL     1      -2.064  10.764  27.190  0.00  0.00     0.200 A 
HETATM    9  N   UNL     1      -1.742  11.615  26.227  0.00  0.00    -0.212 NA
HETATM   10  C   UNL     1      -0.743  11.230  25.392  0.00  0.00     0.140 A 
ENDROOT
BRANCH  10  11
HETATM   11  C   UNL     1      -0.377  12.257  24.341  0.00  0.00     0.273 C 
HETATM   12  O   UNL     1      -0.943  12.250  23.249  0.00  0.00    -0.266 OA
HETATM   13  N   UNL     1       0.621  13.194  24.614  0.00  0.00    -0.342 N 
HETATM   14  C   UNL     1       1.017  14.199  23.632  0.00  0.00     0.139 C 
HETATM   15  C   UNL     1       1.404  13.297  25.829  0.00  0.00     0.161 C 
HETATM   16  C   UNL     1       2.511  14.373  23.898  0.00  0.00     0.057 C 
HETATM   17  C   UNL     1       2.621  14.041  25.369  0.00  0.00    -0.050 C 
HETATM   18  C   UNL     1       3.207  15.673  23.603  0.00  0.00    -0.013 C 
HETATM   19  C   UNL     1       3.667  14.406  26.125  0.00  0.00     0.041 C 
HETATM   20  C   UNL     1       4.721  15.247  25.500  0.00  0.00     0.065 C 
HETATM   21  C   UNL     1       4.279  16.059  24.320  0.00  0.00     0.033 C 
BRANCH  20  22
HETATM   22  O   UNL     1       5.916  15.278  25.985  0.00  0.00    -0.361 OA
HETATM   23  H   UNL     1       6.121  14.495  26.548  0.00  0.00     0.217 HD
ENDBRANCH  20  22
ENDBRANCH  10  11
BRANCH   8  24
HETATM   24  N   UNL     1      -2.987  11.177  28.128  0.00  0.00    -0.271 NA
HETATM   25  H   UNL     1      -3.255  10.390  28.705  0.00  0.00     0.127 HD
HETATM   26  H   UNL     1      -3.735  11.701  27.700  0.00  0.00     0.127 HD
ENDBRANCH   8  24
TORSDOF 3
ENDMDL
MODEL 8
REMARK VINA RESULT:    -7.250      2.339      6.549
REMARK INTER + INTRA:          -8.533
REMARK INTER:                  -8.098
REMARK INTRA:                  -0.436
REMARK UNBOUND:                -0.436
REMARK  3 active torsions:
REMARK  status: ('A' for Active; 'I' for Inactive)
REMARK    1  A    between atoms: C_8  and  N_9 
REMARK    2  A    between atoms: C_11  and  C_12 
REMARK       I    between atoms: C_12  and  N_14 
REMARK    3  A    between atoms: C_20  and  O_21 
ROOT
HETATM    1  C   UNL     1       0.915  13.141  25.817  0.00  0.00     0.016 A 
HETATM    2  C   UNL     1       1.977  13.986  25.491  0.00  0.00     0.001 A 
HETATM    3  C   UNL     1       2.016  14.577  24.238  0.00  0.00     0.002 A 
HETATM    4  C   UNL     1       1.005  14.296  23.316  0.00  0.00     0.032 A 
HETATM    5  C   UNL     1      -0.047  13.434  23.612  0.00  0.00     0.072 A 
HETATM    6  C   UNL     1      -0.122  12.863  24.884  0.00  0.00     0.027 A 
HETATM    7  N   UNL     1      -0.929  13.177  22.640  0.00  0.00    -0.218 NA
HETATM    8  C   UNL     1      -1.928  12.342  22.906  0.00  0.00     0.200 A 
HETATM    9  N   UNL     1      -2.160  11.787  24.087  0.00  0.00    -0.212 NA
HETATM   10  C   UNL     1      -1.246  12.035  25.060  0.00  0.00     0.140 A 
ENDROOT
BRANCH  10  11
HETATM   11  C   UNL     1      -1.527  11.337  26.373  0.00  0.00     0.273 C 
HETATM   12  O   UNL     1      -2.090  11.941  27.285  0.00  0.00    -0.266 OA
HETATM   13  N   UNL     1      -1.123  10.013  26.548  0.00  0.00    -0.342 N 
HETATM   14  C   UNL     1      -1.362   9.297  27.798  0.00  0.00     0.139 C 
HETATM   15  C   UNL     1      -0.413   9.190  25.590  0.00  0.00     0.161 C 
HETATM   16  C   UNL     1      -0.146   8.380  27.910  0.00  0.00     0.057 C 
HETATM   17  C   UNL     1       0.224   8.150  26.462  0.00  0.00    -0.050 C 
HETATM   18  C   UNL     1      -0.226   7.069  28.642  0.00  0.00    -0.013 C 
HETATM   19  C   UNL     1       0.995   7.131  26.057  0.00  0.00     0.041 C 
HETATM   20  C   UNL     1       1.430   6.137  27.073  0.00  0.00     0.065 C 
HETATM   21  C   UNL     1       0.554   6.030  28.284  0.00  0.00     0.033 C 
BRANCH  20  22
HETATM   22  O   UNL     1       2.477   5.409  26.879  0.00  0.00    -0.361 OA
HETATM   23  H   UNL     1       2.283   4.443  26.912  0.00  0.00     0.217 HD
ENDBRANCH  20  22
ENDBRANCH  10  11
BRANCH   8  24
HETATM   24  N   UNL     1      -2.769  12.009  21.865  0.00  0.00    -0.271 NA
HETATM   25  H   UNL     1      -2.300  11.353  21.252  0.00  0.00     0.127 HD
HETATM   26  H   UNL     1      -3.163  12.831  21.433  0.00  0.00     0.127 HD
ENDBRANCH   8  24
TORSDOF 3
ENDMDL
MODEL 9
REMARK VINA RESULT:    -7.171      6.651     10.258
REMARK INTER + INTRA:          -8.446
REMARK INTER:                  -8.105
REMARK INTRA:                  -0.341
REMARK UNBOUND:                -0.436
REMARK  3 active torsions:
REMARK  status: ('A' for Active; 'I' for Inactive)
REMARK    1  A    between atoms: C_8  and  N_9 
REMARK    2  A    between atoms: C_11  and  C_12 
REMARK       I    between atoms: C_12  and  N_14 
REMARK    3  A    between atoms: C_20  and  O_21 
ROOT
HETATM    1  C   UNL     1       8.713  13.766  20.987  0.00  0.00     0.016 A 
HETATM    2  C   UNL     1       9.200  13.504  19.705  0.00  0.00     0.001 A 
HETATM    3  C   UNL     1       9.964  12.367  19.488  0.00  0.00     0.002 A 
HETATM    4  C   UNL     1      10.254  11.520  20.560  0.00  0.00     0.032 A 
HETATM    5  C   UNL     1       9.802  11.780  21.851  0.00  0.00     0.072 A 
HETATM    6  C   UNL     1       8.997  12.898  22.078  0.00  0.00     0.027 A 
HETATM    7  N   UNL     1      10.187  10.945  22.821  0.00  0.00    -0.218 NA
HETATM    8  C   UNL     1       9.776  11.193  24.060  0.00  0.00     0.200 A 
HETATM    9  N   UNL     1       8.954  12.174  24.406  0.00  0.00    -0.212 NA
HETATM   10  C   UNL     1       8.587  13.029  23.417  0.00  0.00     0.140 A 
ENDROOT
BRANCH  10  11
HETATM   11  C   UNL     1       7.691  14.161  23.872  0.00  0.00     0.273 C 
HETATM   12  O   UNL     1       8.158  15.096  24.521  0.00  0.00    -0.266 OA
HETATM   13  N   UNL     1       6.329  14.123  23.570  0.00  0.00    -0.342 N 
HETATM   14  C   UNL     1       5.420  15.185  23.993  0.00  0.00     0.139 C 
HETATM   15  C   UNL     1       5.628  13.073  22.858  0.00  0.00     0.161 C 
HETATM   16  C   UNL     1       4.114  14.438  24.258  0.00  0.00     0.057 C 
HETATM   17  C   UNL     1       4.211  13.265  23.309  0.00  0.00    -0.050 C 
HETATM   18  C   UNL     1       2.784  15.122  24.109  0.00  0.00    -0.013 C 
HETATM   19  C   UNL     1       3.147  12.543  22.927  0.00  0.00     0.041 C 
HETATM   20  C   UNL     1       1.805  12.975  23.397  0.00  0.00     0.065 C 
HETATM   21  C   UNL     1       1.686  14.425  23.758  0.00  0.00     0.033 C 
BRANCH  20  22
HETATM   22  O   UNL     1       0.823  12.140  23.449  0.00  0.00    -0.361 OA
HETATM   23  H   UNL     1       0.771  11.560  22.653  0.00  0.00     0.217 HD
ENDBRANCH  20  22
ENDBRANCH  10  11
BRANCH   8  24
HETATM   24  N   UNL     1      10.264  10.384  25.064  0.00  0.00    -0.271 NA
HETATM   25  H   UNL     1       9.692  10.493  25.892  0.00  0.00     0.127 HD
HETATM   26  H   UNL     1      11.259  10.505  25.182  0.00  0.00     0.127 HD
ENDBRANCH   8  24
TORSDOF 3
ENDMDL
