REMARK  3 active torsions:
REMARK  status: ('A' for Active; 'I' for Inactive)
REMARK    1  A    between atoms: C_8  and  N_9 
REMARK    2  A    between atoms: C_11  and  C_12 
REMARK       I    between atoms: C_12  and  N_14 
REMARK    3  A    between atoms: C_20  and  O_21 
ROOT
HETATM    1  C   UNL     1      -1.077   1.439  -0.838  0.00  0.00     0.016 A 
HETATM    2  C   UNL     1      -2.158   0.674  -1.280  0.00  0.00     0.001 A 
HETATM    3  C   UNL     1      -2.082  -0.709  -1.217  0.00  0.00     0.002 A 
HETATM    4  C   UNL     1      -0.917  -1.311  -0.737  0.00  0.00     0.032 A 
HETATM    5  C   UNL     1       0.182  -0.566  -0.319  0.00  0.00     0.072 A 
HETATM    6  C   UNL     1       0.106   0.828  -0.337  0.00  0.00     0.027 A 
HETATM    7  N   UNL     1       1.275  -1.235   0.062  0.00  0.00    -0.218 NA
HETATM    8  C   UNL     1       2.336  -0.534   0.447  0.00  0.00     0.200 A 
HETATM    9  N   UNL     1       2.379   0.787   0.546  0.00  0.00    -0.212 NA
HETATM   10  C   UNL     1       1.272   1.458   0.135  0.00  0.00     0.140 A 
ENDROOT
BRANCH  10  11
HETATM   11  C   UNL     1       1.389   2.965   0.219  0.00  0.00     0.273 C 
HETATM   12  O   UNL     1       0.394   3.649   0.453  0.00  0.00    -0.266 OA
HETATM   13  N   UNL     1       2.628   3.571   0.006  0.00  0.00    -0.342 N 
HETATM   14  C   UNL     1       2.793   5.021   0.067  0.00  0.00     0.139 C 
HETATM   15  C   UNL     1       3.873   2.906  -0.323  0.00  0.00     0.161 C 
HETATM   16  C   UNL     1       3.875   5.290  -0.977  0.00  0.00     0.057 C 
HETATM   17  C   UNL     1       4.668   4.003  -0.965  0.00  0.00    -0.050 C 
HETATM   18  C   UNL     1       4.796   6.472  -0.854  0.00  0.00    -0.013 C 
HETATM   19  C   UNL     1       5.916   3.908  -1.446  0.00  0.00     0.041 C 
HETATM   20  C   UNL     1       6.573   5.149  -1.934  0.00  0.00     0.065 C 
HETATM   21  C   UNL     1       6.047   6.426  -1.352  0.00  0.00     0.033 C 
BRANCH  20  22
HETATM   22  O   UNL     1       7.548   5.093  -2.777  0.00  0.00    -0.361 OA
HETATM   23  H   UNL     1       7.873   5.984  -3.046  0.00  0.00     0.217 HD
ENDBRANCH  20  22
ENDBRANCH  10  11
BRANCH   8  24
HETATM   24  N   UNL     1       3.487  -1.235   0.738  0.00  0.00    -0.271 NA
HETATM   25  H   UNL     1       3.252  -2.200   0.935  0.00  0.00     0.127 HD
HETATM   26  H   UNL     1       4.045  -0.755   1.428  0.00  0.00     0.127 HD
ENDBRANCH   8  24
TORSDOF 3
