MODEL 1
REMARK VINA RESULT:    -7.090      0.000      0.000
REMARK INTER + INTRA:         -12.780
REMARK INTER:                 -10.676
REMARK INTRA:                  -2.104
REMARK UNBOUND:                -2.789
REMARK  8 active torsions:
REMARK  status: ('A' for Active; 'I' for Inactive)
REMARK    1  A    between atoms: C_2  and  C_3 
REMARK    2  A    between atoms: C_3  and  N_4 
REMARK    3  A    between atoms: N_4  and  S_6 
REMARK    4  A    between atoms: S_6  and  C_9 
REMARK    5  A    between atoms: C_11  and  C_17 
REMARK    6  A    between atoms: C_12  and  O_13 
REMARK    7  A    between atoms: C_15  and  O_16 
REMARK    8  A    between atoms: N_23  and  C_24 
ROOT
HETATM    1  C   UNL     1       6.394  11.165  21.712  0.00  0.00     0.108 A 
HETATM    2  C   UNL     1       6.719  11.755  22.943  0.00  0.00     0.046 A 
HETATM    3  C   UNL     1       7.932  12.424  23.127  0.00  0.00     0.047 A 
HETATM    4  C   UNL     1       8.758  12.621  22.013  0.00  0.00     0.082 A 
HETATM    5  C   UNL     1       8.421  12.077  20.773  0.00  0.00     0.075 A 
HETATM    6  C   UNL     1       7.249  11.328  20.626  0.00  0.00     0.091 A 
ENDROOT
BRANCH   3   7
HETATM    7  C   UNL     1       8.302  12.975  24.451  0.00  0.00     0.172 A 
HETATM    8  N   UNL     1       9.328  12.510  25.119  0.00  0.00    -0.151 NA
HETATM    9  N   UNL     1       9.433  13.347  26.193  0.00  0.00    -0.226 N 
HETATM   10  H   UNL     1      10.153  13.263  26.899  0.00  0.00     0.194 HD
HETATM   11  C   UNL     1       8.449  14.332  26.160  0.00  0.00     0.349 A 
HETATM   12  O   UNL     1       8.312  15.211  26.988  0.00  0.00    -0.245 OA
HETATM   13  N   UNL     1       7.697  14.054  25.039  0.00  0.00    -0.241 N 
BRANCH  13  14
HETATM   14  C   UNL     1       6.469  14.685  24.772  0.00  0.00     0.084 A 
HETATM   15  C   UNL     1       6.253  15.415  23.596  0.00  0.00     0.143 A 
HETATM   16  F   UNL     1       7.212  15.490  22.660  0.00  0.00    -0.204 F 
HETATM   17  C   UNL     1       5.032  16.043  23.355  0.00  0.00     0.044 A 
HETATM   18  C   UNL     1       4.021  15.975  24.315  0.00  0.00     0.003 A 
HETATM   19  C   UNL     1       4.230  15.266  25.498  0.00  0.00     0.002 A 
HETATM   20  C   UNL     1       5.439  14.601  25.714  0.00  0.00     0.033 A 
ENDBRANCH  13  14
ENDBRANCH   3   7
BRANCH   4  21
HETATM   21  O   UNL     1       9.912  13.357  22.053  0.00  0.00    -0.360 OA
HETATM   22  H   UNL     1      10.652  12.791  21.744  0.00  0.00     0.217 HD
ENDBRANCH   4  21
BRANCH   1  23
HETATM   23  S   UNL     1       5.027  10.023  21.720  0.00  0.00     0.246 S 
HETATM   24  O   UNL     1       4.254  10.300  20.522  0.00  0.00    -0.206 OA
HETATM   25  O   UNL     1       4.368  10.048  23.005  0.00  0.00    -0.206 OA
BRANCH  23  26
HETATM   26  N   UNL     1       5.725   8.453  21.501  0.00  0.00    -0.210 NA
HETATM   27  C   UNL     1       4.761   7.565  20.790  0.00  0.00     0.129 C 
BRANCH  26  28
HETATM   28  C   UNL     1       6.238   7.854  22.773  0.00  0.00     0.106 C 
BRANCH  28  29
HETATM   29  C   UNL     1       7.729   8.108  23.015  0.00  0.00     0.011 C 
HETATM   30  C   UNL     1       8.037   8.610  24.417  0.00  0.00     0.006 C 
ENDBRANCH  28  29
ENDBRANCH  26  28
ENDBRANCH  23  26
ENDBRANCH   1  23
BRANCH   6  31
HETATM   31  O   UNL     1       6.945  10.811  19.404  0.00  0.00    -0.359 OA
HETATM   32  H   UNL     1       7.704  10.918  18.804  0.00  0.00     0.217 HD
ENDBRANCH   6  31
TORSDOF 8
ENDMDL
MODEL 2
REMARK VINA RESULT:    -7.072      1.579      2.168
REMARK INTER + INTRA:         -12.755
REMARK INTER:                 -10.078
REMARK INTRA:                  -2.677
REMARK UNBOUND:                -2.789
REMARK  8 active torsions:
REMARK  status: ('A' for Active; 'I' for Inactive)
REMARK    1  A    between atoms: C_2  and  C_3 
REMARK    2  A    between atoms: C_3  and  N_4 
REMARK    3  A    between atoms: N_4  and  S_6 
REMARK    4  A    between atoms: S_6  and  C_9 
REMARK    5  A    between atoms: C_11  and  C_17 
REMARK    6  A    between atoms: C_12  and  O_13 
REMARK    7  A    between atoms: C_15  and  O_16 
REMARK    8  A    between atoms: N_23  and  C_24 
ROOT
HETATM    1  C   UNL     1       6.689  10.816  21.715  0.00  0.00     0.108 A 
HETATM    2  C   UNL     1       7.228  11.565  22.772  0.00  0.00     0.046 A 
HETATM    3  C   UNL     1       8.218  12.525  22.547  0.00  0.00     0.047 A 
HETATM    4  C   UNL     1       8.561  12.829  21.224  0.00  0.00     0.082 A 
HETATM    5  C   UNL     1       7.997  12.120  20.162  0.00  0.00     0.075 A 
HETATM    6  C   UNL     1       7.077  11.096  20.408  0.00  0.00     0.091 A 
ENDROOT
BRANCH   3   7
HETATM    7  C   UNL     1       8.838  13.255  23.676  0.00  0.00     0.172 A 
HETATM    8  N   UNL     1      10.050  12.974  24.085  0.00  0.00    -0.151 NA
HETATM    9  N   UNL     1      10.316  13.933  25.021  0.00  0.00    -0.226 N 
HETATM   10  H   UNL     1      11.195  14.002  25.517  0.00  0.00     0.194 HD
HETATM   11  C   UNL     1       9.238  14.802  25.170  0.00  0.00     0.349 A 
HETATM   12  O   UNL     1       9.204  15.751  25.929  0.00  0.00    -0.245 OA
HETATM   13  N   UNL     1       8.270  14.326  24.314  0.00  0.00    -0.241 N 
BRANCH  13  14
HETATM   14  C   UNL     1       6.943  14.796  24.329  0.00  0.00     0.084 A 
HETATM   15  C   UNL     1       6.380  15.459  23.232  0.00  0.00     0.143 A 
HETATM   16  F   UNL     1       7.089  15.623  22.104  0.00  0.00    -0.204 F 
HETATM   17  C   UNL     1       5.068  15.927  23.273  0.00  0.00     0.044 A 
HETATM   18  C   UNL     1       4.314  15.766  24.435  0.00  0.00     0.003 A 
HETATM   19  C   UNL     1       4.869  15.121  25.542  0.00  0.00     0.002 A 
HETATM   20  C   UNL     1       6.169  14.614  25.480  0.00  0.00     0.033 A 
ENDBRANCH  13  14
ENDBRANCH   3   7
BRANCH   4  21
HETATM   21  O   UNL     1       9.434  13.826  20.883  0.00  0.00    -0.360 OA
HETATM   22  H   UNL     1       9.379  14.534  21.562  0.00  0.00     0.217 HD
ENDBRANCH   4  21
BRANCH   1  23
HETATM   23  S   UNL     1       5.742   9.377  22.169  0.00  0.00     0.246 S 
HETATM   24  O   UNL     1       6.674   8.264  22.197  0.00  0.00    -0.206 OA
HETATM   25  O   UNL     1       4.558   9.284  21.346  0.00  0.00    -0.206 OA
BRANCH  23  26
HETATM   26  N   UNL     1       5.243   9.640  23.806  0.00  0.00    -0.210 NA
HETATM   27  C   UNL     1       5.444   8.396  24.603  0.00  0.00     0.129 C 
BRANCH  26  28
HETATM   28  C   UNL     1       3.852  10.183  23.918  0.00  0.00     0.106 C 
BRANCH  28  29
HETATM   29  C   UNL     1       3.800  11.691  24.177  0.00  0.00     0.011 C 
HETATM   30  C   UNL     1       3.570  12.513  22.918  0.00  0.00     0.006 C 
ENDBRANCH  28  29
ENDBRANCH  26  28
ENDBRANCH  23  26
ENDBRANCH   1  23
BRANCH   6  31
HETATM   31  O   UNL     1       6.541  10.423  19.352  0.00  0.00    -0.359 OA
HETATM   32  H   UNL     1       7.212   9.836  18.962  0.00  0.00     0.217 HD
ENDBRANCH   6  31
TORSDOF 8
ENDMDL
MODEL 3
REMARK VINA RESULT:    -7.061      1.132      1.405
REMARK INTER + INTRA:         -12.740
REMARK INTER:                 -10.415
REMARK INTRA:                  -2.325
REMARK UNBOUND:                -2.789
REMARK  8 active torsions:
REMARK  status: ('A' for Active; 'I' for Inactive)
REMARK    1  A    between atoms: C_2  and  C_3 
REMARK    2  A    between atoms: C_3  and  N_4 
REMARK    3  A    between atoms: N_4  and  S_6 
REMARK    4  A    between atoms: S_6  and  C_9 
REMARK    5  A    between atoms: C_11  and  C_17 
REMARK    6  A    between atoms: C_12  and  O_13 
REMARK    7  A    between atoms: C_15  and  O_16 
REMARK    8  A    between atoms: N_23  and  C_24 
ROOT
HETATM    1  C   UNL     1       6.216  10.979  21.587  0.00  0.00     0.108 A 
HETATM    2  C   UNL     1       6.412  11.558  22.849  0.00  0.00     0.046 A 
HETATM    3  C   UNL     1       7.556  12.309  23.132  0.00  0.00     0.047 A 
HETATM    4  C   UNL     1       8.439  12.594  22.083  0.00  0.00     0.082 A 
HETATM    5  C   UNL     1       8.229  12.059  20.811  0.00  0.00     0.075 A 
HETATM    6  C   UNL     1       7.129  11.231  20.567  0.00  0.00     0.091 A 
ENDROOT
BRANCH   3   7
HETATM    7  C   UNL     1       7.794  12.850  24.489  0.00  0.00     0.172 A 
HETATM    8  N   UNL     1       8.830  12.477  25.200  0.00  0.00    -0.151 NA
HETATM    9  N   UNL     1       8.785  13.282  26.302  0.00  0.00    -0.226 N 
HETATM   10  H   UNL     1       9.471  13.253  27.044  0.00  0.00     0.194 HD
HETATM   11  C   UNL     1       7.699  14.153  26.243  0.00  0.00     0.349 A 
HETATM   12  O   UNL     1       7.422  14.983  27.087  0.00  0.00    -0.245 OA
HETATM   13  N   UNL     1       7.043  13.834  25.075  0.00  0.00    -0.241 N 
BRANCH  13  14
HETATM   14  C   UNL     1       5.767  14.336  24.758  0.00  0.00     0.084 A 
HETATM   15  C   UNL     1       4.596  13.724  25.223  0.00  0.00     0.143 A 
HETATM   16  F   UNL     1       4.665  12.656  26.033  0.00  0.00    -0.204 F 
HETATM   17  C   UNL     1       3.341  14.230  24.887  0.00  0.00     0.044 A 
HETATM   18  C   UNL     1       3.247  15.340  24.047  0.00  0.00     0.003 A 
HETATM   19  C   UNL     1       4.406  15.948  23.564  0.00  0.00     0.002 A 
HETATM   20  C   UNL     1       5.662  15.464  23.940  0.00  0.00     0.033 A 
ENDBRANCH  13  14
ENDBRANCH   3   7
BRANCH   4  21
HETATM   21  O   UNL     1       9.530  13.409  22.219  0.00  0.00    -0.360 OA
HETATM   22  H   UNL     1       9.882  13.610  21.325  0.00  0.00     0.217 HD
ENDBRANCH   4  21
BRANCH   1  23
HETATM   23  S   UNL     1       4.939   9.741  21.475  0.00  0.00     0.246 S 
HETATM   24  O   UNL     1       4.270   9.956  20.204  0.00  0.00    -0.206 OA
HETATM   25  O   UNL     1       4.158   9.724  22.689  0.00  0.00    -0.206 OA
BRANCH  23  26
HETATM   26  N   UNL     1       5.766   8.225  21.344  0.00  0.00    -0.210 NA
HETATM   27  C   UNL     1       4.961   7.279  20.519  0.00  0.00     0.129 C 
BRANCH  26  28
HETATM   28  C   UNL     1       6.158   7.651  22.669  0.00  0.00     0.106 C 
BRANCH  28  29
HETATM   29  C   UNL     1       7.638   7.846  23.009  0.00  0.00     0.011 C 
HETATM   30  C   UNL     1       7.866   8.496  24.366  0.00  0.00     0.006 C 
ENDBRANCH  28  29
ENDBRANCH  26  28
ENDBRANCH  23  26
ENDBRANCH   1  23
BRANCH   6  31
HETATM   31  O   UNL     1       6.948  10.726  19.316  0.00  0.00    -0.359 OA
HETATM   32  H   UNL     1       6.927  11.451  18.668  0.00  0.00     0.217 HD
ENDBRANCH   6  31
TORSDOF 8
ENDMDL
MODEL 4
REMARK VINA RESULT:    -6.776      1.847      2.400
REMARK INTER + INTRA:         -12.338
REMARK INTER:                  -9.937
REMARK INTRA:                  -2.401
REMARK UNBOUND:                -2.789
REMARK  8 active torsions:
REMARK  status: ('A' for Active; 'I' for Inactive)
REMARK    1  A    between atoms: C_2  and  C_3 
REMARK    2  A    between atoms: C_3  and  N_4 
REMARK    3  A    between atoms: N_4  and  S_6 
REMARK    4  A    between atoms: S_6  and  C_9 
REMARK    5  A    between atoms: C_11  and  C_17 
REMARK    6  A    between atoms: C_12  and  O_13 
REMARK    7  A    between atoms: C_15  and  O_16 
REMARK    8  A    between atoms: N_23  and  C_24 
ROOT
HETATM    1  C   UNL     1       4.962  10.447  23.349  0.00  0.00     0.108 A 
HETATM    2  C   UNL     1       5.860  11.339  23.954  0.00  0.00     0.046 A 
HETATM    3  C   UNL     1       6.869  11.962  23.215  0.00  0.00     0.047 A 
HETATM    4  C   UNL     1       6.879  11.789  21.825  0.00  0.00     0.082 A 
HETATM    5  C   UNL     1       5.961  10.938  21.208  0.00  0.00     0.075 A 
HETATM    6  C   UNL     1       5.015  10.247  21.972  0.00  0.00     0.091 A 
ENDROOT
BRANCH   3   7
HETATM    7  C   UNL     1       7.862  12.841  23.875  0.00  0.00     0.172 A 
HETATM    8  N   UNL     1       9.109  12.468  24.024  0.00  0.00    -0.151 NA
HETATM    9  N   UNL     1       9.728  13.575  24.529  0.00  0.00    -0.226 N 
HETATM   10  H   UNL     1      10.717  13.616  24.738  0.00  0.00     0.194 HD
HETATM   11  C   UNL     1       8.830  14.628  24.682  0.00  0.00     0.349 A 
HETATM   12  O   UNL     1       9.112  15.733  25.104  0.00  0.00    -0.245 OA
HETATM   13  N   UNL     1       7.611  14.123  24.286  0.00  0.00    -0.241 N 
BRANCH  13  14
HETATM   14  C   UNL     1       6.399  14.805  24.500  0.00  0.00     0.084 A 
HETATM   15  C   UNL     1       5.781  14.839  25.757  0.00  0.00     0.143 A 
HETATM   16  F   UNL     1       6.364  14.252  26.814  0.00  0.00    -0.204 F 
HETATM   17  C   UNL     1       4.574  15.510  25.944  0.00  0.00     0.044 A 
HETATM   18  C   UNL     1       3.953  16.128  24.859  0.00  0.00     0.003 A 
HETATM   19  C   UNL     1       4.549  16.087  23.598  0.00  0.00     0.002 A 
HETATM   20  C   UNL     1       5.781  15.451  23.425  0.00  0.00     0.033 A 
ENDBRANCH  13  14
ENDBRANCH   3   7
BRANCH   4  21
HETATM   21  O   UNL     1       7.750  12.438  20.993  0.00  0.00    -0.360 OA
HETATM   22  H   UNL     1       8.253  13.097  21.520  0.00  0.00     0.217 HD
ENDBRANCH   4  21
BRANCH   1  23
HETATM   23  S   UNL     1       3.993   9.434  24.448  0.00  0.00     0.246 S 
HETATM   24  O   UNL     1       2.618   9.533  23.992  0.00  0.00    -0.206 OA
HETATM   25  O   UNL     1       4.304   9.756  25.821  0.00  0.00    -0.206 OA
BRANCH  23  26
HETATM   26  N   UNL     1       4.494   7.804  24.150  0.00  0.00    -0.210 NA
HETATM   27  C   UNL     1       3.365   6.869  24.423  0.00  0.00     0.129 C 
BRANCH  26  28
HETATM   28  C   UNL     1       5.747   7.429  24.877  0.00  0.00     0.106 C 
BRANCH  28  29
HETATM   29  C   UNL     1       7.009   7.519  24.014  0.00  0.00     0.011 C 
HETATM   30  C   UNL     1       8.027   8.523  24.534  0.00  0.00     0.006 C 
ENDBRANCH  28  29
ENDBRANCH  26  28
ENDBRANCH  23  26
ENDBRANCH   1  23
BRANCH   6  31
HETATM   31  O   UNL     1       4.131   9.425  21.343  0.00  0.00    -0.359 OA
HETATM   32  H   UNL     1       3.383   9.232  21.935  0.00  0.00     0.217 HD
ENDBRANCH   6  31
TORSDOF 8
ENDMDL
MODEL 5
REMARK VINA RESULT:    -6.756      2.436      3.541
REMARK INTER + INTRA:         -12.309
REMARK INTER:                 -10.004
REMARK INTRA:                  -2.305
REMARK UNBOUND:                -2.789
REMARK  8 active torsions:
REMARK  status: ('A' for Active; 'I' for Inactive)
REMARK    1  A    between atoms: C_2  and  C_3 
REMARK    2  A    between atoms: C_3  and  N_4 
REMARK    3  A    between atoms: N_4  and  S_6 
REMARK    4  A    between atoms: S_6  and  C_9 
REMARK    5  A    between atoms: C_11  and  C_17 
REMARK    6  A    between atoms: C_12  and  O_13 
REMARK    7  A    between atoms: C_15  and  O_16 
REMARK    8  A    between atoms: N_23  and  C_24 
ROOT
HETATM    1  C   UNL     1       4.525  10.373  23.763  0.00  0.00     0.108 A 
HETATM    2  C   UNL     1       5.333  11.224  24.531  0.00  0.00     0.046 A 
HETATM    3  C   UNL     1       6.558  11.691  24.048  0.00  0.00     0.047 A 
HETATM    4  C   UNL     1       6.899  11.409  22.719  0.00  0.00     0.082 A 
HETATM    5  C   UNL     1       6.079  10.600  21.931  0.00  0.00     0.075 A 
HETATM    6  C   UNL     1       4.902  10.062  22.459  0.00  0.00     0.091 A 
ENDROOT
BRANCH   3   7
HETATM    7  C   UNL     1       7.442  12.523  24.895  0.00  0.00     0.172 A 
HETATM    8  N   UNL     1       8.546  12.040  25.408  0.00  0.00    -0.151 NA
HETATM    9  N   UNL     1       9.145  13.122  25.988  0.00  0.00    -0.226 N 
HETATM   10  H   UNL     1      10.039  13.081  26.459  0.00  0.00     0.194 HD
HETATM   11  C   UNL     1       8.379  14.273  25.815  0.00  0.00     0.349 A 
HETATM   12  O   UNL     1       8.676  15.378  26.223  0.00  0.00    -0.245 OA
HETATM   13  N   UNL     1       7.256  13.859  25.133  0.00  0.00    -0.241 N 
BRANCH  13  14
HETATM   14  C   UNL     1       6.128  14.681  24.957  0.00  0.00     0.084 A 
HETATM   15  C   UNL     1       5.826  15.269  23.722  0.00  0.00     0.143 A 
HETATM   16  F   UNL     1       6.593  15.020  22.648  0.00  0.00    -0.204 F 
HETATM   17  C   UNL     1       4.710  16.091  23.572  0.00  0.00     0.044 A 
HETATM   18  C   UNL     1       3.900  16.361  24.675  0.00  0.00     0.003 A 
HETATM   19  C   UNL     1       4.199  15.795  25.915  0.00  0.00     0.002 A 
HETATM   20  C   UNL     1       5.293  14.937  26.049  0.00  0.00     0.033 A 
ENDBRANCH  13  14
ENDBRANCH   3   7
BRANCH   4  21
HETATM   21  O   UNL     1       8.018  11.907  22.107  0.00  0.00    -0.360 OA
HETATM   22  H   UNL     1       7.990  11.659  21.158  0.00  0.00     0.217 HD
ENDBRANCH   4  21
BRANCH   1  23
HETATM   23  S   UNL     1       3.205   9.544  24.625  0.00  0.00     0.246 S 
HETATM   24  O   UNL     1       3.704   9.256  25.959  0.00  0.00    -0.206 OA
HETATM   25  O   UNL     1       2.688   8.464  23.818  0.00  0.00    -0.206 OA
BRANCH  23  26
HETATM   26  N   UNL     1       1.953  10.725  24.814  0.00  0.00    -0.210 NA
HETATM   27  C   UNL     1       0.622  10.052  24.837  0.00  0.00     0.129 C 
BRANCH  26  28
HETATM   28  C   UNL     1       2.027  11.829  23.806  0.00  0.00     0.106 C 
BRANCH  28  29
HETATM   29  C   UNL     1       1.933  13.228  24.421  0.00  0.00     0.011 C 
HETATM   30  C   UNL     1       1.052  14.180  23.626  0.00  0.00     0.006 C 
ENDBRANCH  28  29
ENDBRANCH  26  28
ENDBRANCH  23  26
ENDBRANCH   1  23
BRANCH   6  31
HETATM   31  O   UNL     1       4.120   9.278  21.666  0.00  0.00    -0.359 OA
HETATM   32  H   UNL     1       4.632   8.512  21.354  0.00  0.00     0.217 HD
ENDBRANCH   6  31
TORSDOF 8
ENDMDL
MODEL 6
REMARK VINA RESULT:    -6.686      2.762      4.808
REMARK INTER + INTRA:         -12.210
REMARK INTER:                  -9.708
REMARK INTRA:                  -2.502
REMARK UNBOUND:                -2.789
REMARK  8 active torsions:
REMARK  status: ('A' for Active; 'I' for Inactive)
REMARK    1  A    between atoms: C_2  and  C_3 
REMARK    2  A    between atoms: C_3  and  N_4 
REMARK    3  A    between atoms: N_4  and  S_6 
REMARK    4  A    between atoms: S_6  and  C_9 
REMARK    5  A    between atoms: C_11  and  C_17 
REMARK    6  A    between atoms: C_12  and  O_13 
REMARK    7  A    between atoms: C_15  and  O_16 
REMARK    8  A    between atoms: N_23  and  C_24 
ROOT
HETATM    1  C   UNL     1       4.797  11.866  22.555  0.00  0.00     0.108 A 
HETATM    2  C   UNL     1       5.727  12.863  22.223  0.00  0.00     0.046 A 
HETATM    3  C   UNL     1       6.869  12.566  21.473  0.00  0.00     0.047 A 
HETATM    4  C   UNL     1       6.995  11.280  20.935  0.00  0.00     0.082 A 
HETATM    5  C   UNL     1       6.050  10.293  21.222  0.00  0.00     0.075 A 
HETATM    6  C   UNL     1       4.962  10.579  22.052  0.00  0.00     0.091 A 
ENDROOT
BRANCH   3   7
HETATM    7  C   UNL     1       7.886  13.606  21.195  0.00  0.00     0.172 A 
HETATM    8  N   UNL     1       8.175  13.964  19.968  0.00  0.00    -0.151 NA
HETATM    9  N   UNL     1       9.027  15.021  20.123  0.00  0.00    -0.226 N 
HETATM   10  H   UNL     1       9.420  15.539  19.349  0.00  0.00     0.194 HD
HETATM   11  C   UNL     1       9.247  15.296  21.470  0.00  0.00     0.349 A 
HETATM   12  O   UNL     1       9.957  16.186  21.896  0.00  0.00    -0.245 OA
HETATM   13  N   UNL     1       8.526  14.343  22.156  0.00  0.00    -0.241 N 
BRANCH  13  14
HETATM   14  C   UNL     1       8.661  14.137  23.541  0.00  0.00     0.084 A 
HETATM   15  C   UNL     1       9.546  13.185  24.065  0.00  0.00     0.143 A 
HETATM   16  F   UNL     1      10.331  12.469  23.246  0.00  0.00    -0.204 F 
HETATM   17  C   UNL     1       9.655  12.989  25.440  0.00  0.00     0.044 A 
HETATM   18  C   UNL     1       8.848  13.725  26.308  0.00  0.00     0.003 A 
HETATM   19  C   UNL     1       7.951  14.664  25.799  0.00  0.00     0.002 A 
HETATM   20  C   UNL     1       7.877  14.889  24.422  0.00  0.00     0.033 A 
ENDBRANCH  13  14
ENDBRANCH   3   7
BRANCH   4  21
HETATM   21  O   UNL     1       8.012  10.911  20.096  0.00  0.00    -0.360 OA
HETATM   22  H   UNL     1       8.167  11.640  19.457  0.00  0.00     0.217 HD
ENDBRANCH   4  21
BRANCH   1  23
HETATM   23  S   UNL     1       3.616  12.279  23.823  0.00  0.00     0.246 S 
HETATM   24  O   UNL     1       3.282  11.035  24.493  0.00  0.00    -0.206 OA
HETATM   25  O   UNL     1       2.555  13.087  23.267  0.00  0.00    -0.206 OA
BRANCH  23  26
HETATM   26  N   UNL     1       4.480  13.241  24.975  0.00  0.00    -0.210 NA
HETATM   27  C   UNL     1       5.016  12.371  26.060  0.00  0.00     0.129 C 
BRANCH  26  28
HETATM   28  C   UNL     1       3.682  14.394  25.497  0.00  0.00     0.106 C 
BRANCH  28  29
HETATM   29  C   UNL     1       4.317  15.759  25.216  0.00  0.00     0.011 C 
HETATM   30  C   UNL     1       4.355  16.116  23.738  0.00  0.00     0.006 C 
ENDBRANCH  28  29
ENDBRANCH  26  28
ENDBRANCH  23  26
ENDBRANCH   1  23
BRANCH   6  31
HETATM   31  O   UNL     1       4.055   9.597  22.314  0.00  0.00    -0.359 OA
HETATM   32  H   UNL     1       3.156   9.970  22.310  0.00  0.00     0.217 HD
ENDBRANCH   6  31
TORSDOF 8
ENDMDL
MODEL 7
REMARK VINA RESULT:    -6.529      5.788      7.828
REMARK INTER + INTRA:         -11.990
REMARK INTER:                 -10.142
REMARK INTRA:                  -1.848
REMARK UNBOUND:                -2.789
REMARK  8 active torsions:
REMARK  status: ('A' for Active; 'I' for Inactive)
REMARK    1  A    between atoms: C_2  and  C_3 
REMARK    2  A    between atoms: C_3  and  N_4 
REMARK    3  A    between atoms: N_4  and  S_6 
REMARK    4  A    between atoms: S_6  and  C_9 
REMARK    5  A    between atoms: C_11  and  C_17 
REMARK    6  A    between atoms: C_12  and  O_13 
REMARK    7  A    between atoms: C_15  and  O_16 
REMARK    8  A    between atoms: N_23  and  C_24 
ROOT
HETATM    1  C   UNL     1       3.183   8.953  24.053  0.00  0.00     0.108 A 
HETATM    2  C   UNL     1       2.175   9.423  24.907  0.00  0.00     0.046 A 
HETATM    3  C   UNL     1       0.886   8.883  24.871  0.00  0.00     0.047 A 
HETATM    4  C   UNL     1       0.658   7.762  24.064  0.00  0.00     0.082 A 
HETATM    5  C   UNL     1       1.668   7.258  23.243  0.00  0.00     0.075 A 
HETATM    6  C   UNL     1       2.927   7.868  23.219  0.00  0.00     0.091 A 
ENDROOT
BRANCH   3   7
HETATM    7  C   UNL     1      -0.193   9.437  25.719  0.00  0.00     0.172 A 
HETATM    8  N   UNL     1      -0.551   8.852  26.835  0.00  0.00    -0.151 NA
HETATM    9  N   UNL     1      -1.449   9.718  27.391  0.00  0.00    -0.226 N 
HETATM   10  H   UNL     1      -1.900   9.559  28.283  0.00  0.00     0.194 HD
HETATM   11  C   UNL     1      -1.628  10.842  26.588  0.00  0.00     0.349 A 
HETATM   12  O   UNL     1      -2.364  11.774  26.844  0.00  0.00    -0.245 OA
HETATM   13  N   UNL     1      -0.831  10.627  25.485  0.00  0.00    -0.241 N 
BRANCH  13  14
HETATM   14  C   UNL     1      -0.898  11.429  24.331  0.00  0.00     0.084 A 
HETATM   15  C   UNL     1      -2.022  11.429  23.495  0.00  0.00     0.143 A 
HETATM   16  F   UNL     1      -3.097  10.688  23.806  0.00  0.00    -0.204 F 
HETATM   17  C   UNL     1      -2.064  12.221  22.348  0.00  0.00     0.044 A 
HETATM   18  C   UNL     1      -0.957  12.999  22.008  0.00  0.00     0.003 A 
HETATM   19  C   UNL     1       0.175  12.995  22.823  0.00  0.00     0.002 A 
HETATM   20  C   UNL     1       0.194  12.234  23.994  0.00  0.00     0.033 A 
ENDBRANCH  13  14
ENDBRANCH   3   7
BRANCH   4  21
HETATM   21  O   UNL     1      -0.532   7.085  24.035  0.00  0.00    -0.360 OA
HETATM   22  H   UNL     1      -0.747   6.873  23.101  0.00  0.00     0.217 HD
ENDBRANCH   4  21
BRANCH   1  23
HETATM   23  S   UNL     1       4.641   9.968  23.917  0.00  0.00     0.246 S 
HETATM   24  O   UNL     1       5.692   9.111  23.399  0.00  0.00    -0.206 OA
HETATM   25  O   UNL     1       4.861  10.685  25.152  0.00  0.00    -0.206 OA
BRANCH  23  26
HETATM   26  N   UNL     1       4.295  11.125  22.676  0.00  0.00    -0.210 NA
HETATM   27  C   UNL     1       4.731  10.594  21.353  0.00  0.00     0.129 C 
BRANCH  26  28
HETATM   28  C   UNL     1       4.847  12.485  22.966  0.00  0.00     0.106 C 
BRANCH  28  29
HETATM   29  C   UNL     1       3.777  13.516  23.339  0.00  0.00     0.011 C 
HETATM   30  C   UNL     1       4.311  14.938  23.421  0.00  0.00     0.006 C 
ENDBRANCH  28  29
ENDBRANCH  26  28
ENDBRANCH  23  26
ENDBRANCH   1  23
BRANCH   6  31
HETATM   31  O   UNL     1       3.894   7.354  22.411  0.00  0.00    -0.359 OA
HETATM   32  H   UNL     1       3.850   7.776  21.535  0.00  0.00     0.217 HD
ENDBRANCH   6  31
TORSDOF 8
ENDMDL
MODEL 8
REMARK VINA RESULT:    -6.316      3.195      5.406
REMARK INTER + INTRA:         -11.690
REMARK INTER:                  -8.790
REMARK INTRA:                  -2.901
REMARK UNBOUND:                -2.789
REMARK  8 active torsions:
REMARK  status: ('A' for Active; 'I' for Inactive)
REMARK    1  A    between atoms: C_2  and  C_3 
REMARK    2  A    between atoms: C_3  and  N_4 
REMARK    3  A    between atoms: N_4  and  S_6 
REMARK    4  A    between atoms: S_6  and  C_9 
REMARK    5  A    between atoms: C_11  and  C_17 
REMARK    6  A    between atoms: C_12  and  O_13 
REMARK    7  A    between atoms: C_15  and  O_16 
REMARK    8  A    between atoms: N_23  and  C_24 
ROOT
HETATM    1  C   UNL     1       8.536  14.794  22.401  0.00  0.00     0.108 A 
HETATM    2  C   UNL     1       7.143  14.907  22.519  0.00  0.00     0.046 A 
HETATM    3  C   UNL     1       6.518  14.887  23.769  0.00  0.00     0.047 A 
HETATM    4  C   UNL     1       7.324  14.899  24.914  0.00  0.00     0.082 A 
HETATM    5  C   UNL     1       8.714  14.833  24.807  0.00  0.00     0.075 A 
HETATM    6  C   UNL     1       9.321  14.757  23.550  0.00  0.00     0.091 A 
ENDROOT
BRANCH   3   7
HETATM    7  C   UNL     1       5.042  14.926  23.882  0.00  0.00     0.172 A 
HETATM    8  N   UNL     1       4.411  16.035  24.178  0.00  0.00    -0.151 NA
HETATM    9  N   UNL     1       3.090  15.711  24.048  0.00  0.00    -0.226 N 
HETATM   10  H   UNL     1       2.336  16.369  24.192  0.00  0.00     0.194 HD
HETATM   11  C   UNL     1       2.935  14.381  23.665  0.00  0.00     0.349 A 
HETATM   12  O   UNL     1       1.870  13.828  23.471  0.00  0.00    -0.245 OA
HETATM   13  N   UNL     1       4.214  13.873  23.597  0.00  0.00    -0.241 N 
BRANCH  13  14
HETATM   14  C   UNL     1       4.480  12.498  23.459  0.00  0.00     0.084 A 
HETATM   15  C   UNL     1       4.590  11.651  24.569  0.00  0.00     0.143 A 
HETATM   16  F   UNL     1       4.395  12.130  25.808  0.00  0.00    -0.204 F 
HETATM   17  C   UNL     1       4.867  10.294  24.411  0.00  0.00     0.044 A 
HETATM   18  C   UNL     1       5.073   9.777  23.132  0.00  0.00     0.003 A 
HETATM   19  C   UNL     1       4.983  10.614  22.019  0.00  0.00     0.002 A 
HETATM   20  C   UNL     1       4.661  11.964  22.180  0.00  0.00     0.033 A 
ENDBRANCH  13  14
ENDBRANCH   3   7
BRANCH   4  21
HETATM   21  O   UNL     1       6.823  14.993  26.185  0.00  0.00    -0.360 OA
HETATM   22  H   UNL     1       6.122  15.680  26.194  0.00  0.00     0.217 HD
ENDBRANCH   4  21
BRANCH   1  23
HETATM   23  S   UNL     1       9.165  14.438  20.773  0.00  0.00     0.246 S 
HETATM   24  O   UNL     1      10.399  15.192  20.636  0.00  0.00    -0.206 OA
HETATM   25  O   UNL     1       8.121  14.611  19.790  0.00  0.00    -0.206 OA
BRANCH  23  26
HETATM   26  N   UNL     1       9.611  12.765  20.797  0.00  0.00    -0.210 NA
HETATM   27  C   UNL     1      10.300  12.406  19.524  0.00  0.00     0.129 C 
BRANCH  26  28
HETATM   28  C   UNL     1       8.467  11.855  21.115  0.00  0.00     0.106 C 
BRANCH  28  29
HETATM   29  C   UNL     1       8.790  10.814  22.192  0.00  0.00     0.011 C 
HETATM   30  C   UNL     1       8.395  11.253  23.594  0.00  0.00     0.006 C 
ENDBRANCH  28  29
ENDBRANCH  26  28
ENDBRANCH  23  26
ENDBRANCH   1  23
BRANCH   6  31
HETATM   31  O   UNL     1      10.679  14.696  23.475  0.00  0.00    -0.359 OA
HETATM   32  H   UNL     1      11.046  15.596  23.419  0.00  0.00     0.217 HD
ENDBRANCH   6  31
TORSDOF 8
ENDMDL
MODEL 9
REMARK VINA RESULT:    -6.312      2.352      3.334
REMARK INTER + INTRA:         -11.684
REMARK INTER:                  -8.895
REMARK INTRA:                  -2.789
REMARK UNBOUND:                -2.789
REMARK  8 active torsions:
REMARK  status: ('A' for Active; 'I' for Inactive)
REMARK    1  A    between atoms: C_2  and  C_3 
REMARK    2  A    between atoms: C_3  and  N_4 
REMARK    3  A    between atoms: N_4  and  S_6 
REMARK    4  A    between atoms: S_6  and  C_9 
REMARK    5  A    between atoms: C_11  and  C_17 
REMARK    6  A    between atoms: C_12  and  O_13 
REMARK    7  A    between atoms: C_15  and  O_16 
REMARK    8  A    between atoms: N_23  and  C_24 
ROOT
HETATM    1  C   UNL     1       6.804  10.102  22.961  0.00  0.00     0.108 A 
HETATM    2  C   UNL     1       7.364  11.281  22.449  0.00  0.00     0.046 A 
HETATM    3  C   UNL     1       8.472  11.879  23.054  0.00  0.00     0.047 A 
HETATM    4  C   UNL     1       9.105  11.198  24.102  0.00  0.00     0.082 A 
HETATM    5  C   UNL     1       8.581  10.000  24.590  0.00  0.00     0.075 A 
HETATM    6  C   UNL     1       7.416   9.462  24.035  0.00  0.00     0.091 A 
ENDROOT
BRANCH   3   7
HETATM    7  C   UNL     1       9.009  13.166  22.555  0.00  0.00     0.172 A 
HETATM    8  N   UNL     1      10.137  13.222  21.892  0.00  0.00    -0.151 NA
HETATM    9  N   UNL     1      10.219  14.523  21.485  0.00  0.00    -0.226 N 
HETATM   10  H   UNL     1      10.979  14.887  20.925  0.00  0.00     0.194 HD
HETATM   11  C   UNL     1       9.115  15.255  21.916  0.00  0.00     0.349 A 
HETATM   12  O   UNL     1       8.926  16.434  21.690  0.00  0.00    -0.245 OA
HETATM   13  N   UNL     1       8.354  14.366  22.642  0.00  0.00    -0.241 N 
BRANCH  13  14
HETATM   14  C   UNL     1       7.263  14.769  23.435  0.00  0.00     0.084 A 
HETATM   15  C   UNL     1       7.286  14.665  24.832  0.00  0.00     0.143 A 
HETATM   16  F   UNL     1       8.384  14.216  25.459  0.00  0.00    -0.204 F 
HETATM   17  C   UNL     1       6.190  15.059  25.598  0.00  0.00     0.044 A 
HETATM   18  C   UNL     1       5.039  15.529  24.964  0.00  0.00     0.003 A 
HETATM   19  C   UNL     1       4.998  15.621  23.573  0.00  0.00     0.002 A 
HETATM   20  C   UNL     1       6.115  15.268  22.812  0.00  0.00     0.033 A 
ENDBRANCH  13  14
ENDBRANCH   3   7
BRANCH   4  21
HETATM   21  O   UNL     1      10.260  11.634  24.693  0.00  0.00    -0.360 OA
HETATM   22  H   UNL     1      10.629  12.366  24.153  0.00  0.00     0.217 HD
ENDBRANCH   4  21
BRANCH   1  23
HETATM   23  S   UNL     1       5.187   9.665  22.353  0.00  0.00     0.246 S 
HETATM   24  O   UNL     1       5.288   8.302  21.862  0.00  0.00    -0.206 OA
HETATM   25  O   UNL     1       4.695  10.697  21.470  0.00  0.00    -0.206 OA
BRANCH  23  26
HETATM   26  N   UNL     1       4.160   9.611  23.746  0.00  0.00    -0.210 NA
HETATM   27  C   UNL     1       3.287   8.403  23.685  0.00  0.00     0.129 C 
BRANCH  26  28
HETATM   28  C   UNL     1       3.388  10.875  23.959  0.00  0.00     0.106 C 
BRANCH  28  29
HETATM   29  C   UNL     1       4.213  12.000  24.590  0.00  0.00     0.011 C 
HETATM   30  C   UNL     1       4.873  11.603  25.902  0.00  0.00     0.006 C 
ENDBRANCH  28  29
ENDBRANCH  26  28
ENDBRANCH  23  26
ENDBRANCH   1  23
BRANCH   6  31
HETATM   31  O   UNL     1       6.929   8.290  24.530  0.00  0.00    -0.359 OA
HETATM   32  H   UNL     1       6.303   8.473  25.253  0.00  0.00     0.217 HD
ENDBRANCH   6  31
TORSDOF 8
ENDMDL
