MODEL 1
REMARK VINA RESULT:    -8.246      0.000      0.000
REMARK INTER + INTRA:          -9.283
REMARK INTER:                  -8.844
REMARK INTRA:                  -0.439
REMARK UNBOUND:                -0.314
REMARK  2 active torsions:
REMARK  status: ('A' for Active; 'I' for Inactive)
REMARK    1  A    between atoms: C_9  and  N_10 
REMARK    2  A    between atoms: C_12  and  C_13 
REMARK       I    between atoms: C_13  and  N_15 
ROOT
HETATM    1  C   UNL     1       2.683  14.565  24.455  0.00  0.00     0.048 C 
HETATM    2  C   UNL     1       4.054  14.692  23.862  0.00  0.00    -0.061 A 
HETATM    3  C   UNL     1       4.714  13.591  23.300  0.00  0.00     0.023 A 
HETATM    4  C   UNL     1       4.686  15.933  23.837  0.00  0.00     0.009 A 
HETATM    5  C   UNL     1       5.957  16.060  23.273  0.00  0.00     0.033 A 
HETATM    6  C   UNL     1       6.625  14.981  22.719  0.00  0.00     0.073 A 
HETATM    7  C   UNL     1       6.007  13.727  22.715  0.00  0.00     0.028 A 
HETATM    8  N   UNL     1       7.857  15.196  22.242  0.00  0.00    -0.218 NA
HETATM    9  C   UNL     1       8.516  14.165  21.728  0.00  0.00     0.200 A 
HETATM   10  N   UNL     1       8.021  12.946  21.599  0.00  0.00    -0.212 NA
HETATM   11  C   UNL     1       6.794  12.723  22.133  0.00  0.00     0.140 A 
ENDROOT
BRANCH  11  12
HETATM   12  C   UNL     1       6.388  11.262  22.142  0.00  0.00     0.273 C 
HETATM   13  O   UNL     1       6.729  10.524  23.064  0.00  0.00    -0.266 OA
HETATM   14  N   UNL     1       5.635  10.797  21.060  0.00  0.00    -0.342 N 
HETATM   15  C   UNL     1       5.166   9.419  20.932  0.00  0.00     0.139 C 
HETATM   16  C   UNL     1       5.252  11.590  19.905  0.00  0.00     0.161 C 
HETATM   17  C   UNL     1       5.150   9.173  19.419  0.00  0.00     0.056 C 
HETATM   18  C   UNL     1       4.951  10.568  18.874  0.00  0.00    -0.056 C 
HETATM   19  C   UNL     1       4.157   8.213  18.817  0.00  0.00    -0.020 C 
HETATM   20  C   UNL     1       4.465  10.801  17.642  0.00  0.00    -0.018 C 
HETATM   21  C   UNL     1       4.013   9.663  16.770  0.00  0.00     0.054 C 
HETATM   22  C   UNL     1       3.669   8.428  17.577  0.00  0.00    -0.026 C 
ENDBRANCH  11  12
BRANCH   9  23
HETATM   23  N   UNL     1       9.824  14.359  21.349  0.00  0.00    -0.271 NA
HETATM   24  H   UNL     1      10.417  14.512  22.151  0.00  0.00     0.127 HD
HETATM   25  H   UNL     1       9.891  15.005  20.577  0.00  0.00     0.127 HD
ENDBRANCH   9  23
TORSDOF 2
ENDMDL
MODEL 2
REMARK VINA RESULT:    -8.026      2.226      3.645
REMARK INTER + INTRA:          -9.044
REMARK INTER:                  -9.030
REMARK INTRA:                  -0.014
REMARK UNBOUND:                -0.314
REMARK  2 active torsions:
REMARK  status: ('A' for Active; 'I' for Inactive)
REMARK    1  A    between atoms: C_9  and  N_10 
REMARK    2  A    between atoms: C_12  and  C_13 
REMARK       I    between atoms: C_13  and  N_15 
ROOT
HETATM    1  C   UNL     1       2.436  14.457  24.261  0.00  0.00     0.048 C 
HETATM    2  C   UNL     1       3.838  14.699  23.785  0.00  0.00    -0.061 A 
HETATM    3  C   UNL     1       4.487  13.798  22.930  0.00  0.00     0.023 A 
HETATM    4  C   UNL     1       4.510  15.856  24.171  0.00  0.00     0.009 A 
HETATM    5  C   UNL     1       5.809  16.093  23.720  0.00  0.00     0.033 A 
HETATM    6  C   UNL     1       6.468  15.210  22.880  0.00  0.00     0.073 A 
HETATM    7  C   UNL     1       5.810  14.050  22.463  0.00  0.00     0.028 A 
HETATM    8  N   UNL     1       7.727  15.507  22.537  0.00  0.00    -0.218 NA
HETATM    9  C   UNL     1       8.376  14.658  21.750  0.00  0.00     0.200 A 
HETATM   10  N   UNL     1       7.848  13.563  21.229  0.00  0.00    -0.212 NA
HETATM   11  C   UNL     1       6.590  13.241  21.624  0.00  0.00     0.140 A 
ENDROOT
BRANCH  11  12
HETATM   12  C   UNL     1       6.137  11.870  21.162  0.00  0.00     0.273 C 
HETATM   13  O   UNL     1       5.157  11.749  20.432  0.00  0.00    -0.266 OA
HETATM   14  N   UNL     1       6.865  10.765  21.615  0.00  0.00    -0.342 N 
HETATM   15  C   UNL     1       6.553   9.385  21.251  0.00  0.00     0.139 C 
HETATM   16  C   UNL     1       7.991  10.824  22.530  0.00  0.00     0.161 C 
HETATM   17  C   UNL     1       6.981   8.573  22.478  0.00  0.00     0.056 C 
HETATM   18  C   UNL     1       8.061   9.446  23.075  0.00  0.00    -0.056 C 
HETATM   19  C   UNL     1       7.463   7.154  22.320  0.00  0.00    -0.020 C 
HETATM   20  C   UNL     1       9.001   8.967  23.907  0.00  0.00    -0.018 C 
HETATM   21  C   UNL     1       9.069   7.499  24.221  0.00  0.00     0.054 C 
HETATM   22  C   UNL     1       8.399   6.657  23.155  0.00  0.00    -0.026 C 
ENDBRANCH  11  12
BRANCH   9  23
HETATM   23  N   UNL     1       9.706  14.900  21.495  0.00  0.00    -0.271 NA
HETATM   24  H   UNL     1       9.817  15.574  20.753  0.00  0.00     0.127 HD
HETATM   25  H   UNL     1      10.232  14.041  21.441  0.00  0.00     0.127 HD
ENDBRANCH   9  23
TORSDOF 2
ENDMDL
MODEL 3
REMARK VINA RESULT:    -7.880      2.067      6.600
REMARK INTER + INTRA:          -8.885
REMARK INTER:                  -8.434
REMARK INTRA:                  -0.451
REMARK UNBOUND:                -0.314
REMARK  2 active torsions:
REMARK  status: ('A' for Active; 'I' for Inactive)
REMARK    1  A    between atoms: C_9  and  N_10 
REMARK    2  A    between atoms: C_12  and  C_13 
REMARK       I    between atoms: C_13  and  N_15 
ROOT
HETATM    1  C   UNL     1       3.180  12.355  16.700  0.00  0.00     0.048 C 
HETATM    2  C   UNL     1       3.884  11.225  17.390  0.00  0.00    -0.061 A 
HETATM    3  C   UNL     1       4.093  11.229  18.775  0.00  0.00     0.023 A 
HETATM    4  C   UNL     1       4.321  10.127  16.652  0.00  0.00     0.009 A 
HETATM    5  C   UNL     1       4.964   9.066  17.291  0.00  0.00     0.033 A 
HETATM    6  C   UNL     1       5.184   9.057  18.659  0.00  0.00     0.073 A 
HETATM    7  C   UNL     1       4.741  10.138  19.425  0.00  0.00     0.028 A 
HETATM    8  N   UNL     1       5.848   8.013  19.170  0.00  0.00    -0.218 NA
HETATM    9  C   UNL     1       6.084   8.004  20.477  0.00  0.00     0.200 A 
HETATM   10  N   UNL     1       5.659   8.926  21.323  0.00  0.00    -0.212 NA
HETATM   11  C   UNL     1       5.034  10.007  20.791  0.00  0.00     0.140 A 
ENDROOT
BRANCH  11  12
HETATM   12  C   UNL     1       4.773  11.116  21.791  0.00  0.00     0.273 C 
HETATM   13  O   UNL     1       3.702  11.180  22.388  0.00  0.00    -0.266 OA
HETATM   14  N   UNL     1       5.787  12.060  21.983  0.00  0.00    -0.342 N 
HETATM   15  C   UNL     1       5.684  13.180  22.916  0.00  0.00     0.139 C 
HETATM   16  C   UNL     1       7.050  12.089  21.267  0.00  0.00     0.161 C 
HETATM   17  C   UNL     1       6.521  14.285  22.261  0.00  0.00     0.056 C 
HETATM   18  C   UNL     1       7.509  13.489  21.440  0.00  0.00    -0.056 C 
HETATM   19  C   UNL     1       7.229  15.306  23.112  0.00  0.00    -0.020 C 
HETATM   20  C   UNL     1       8.683  13.997  21.028  0.00  0.00    -0.018 C 
HETATM   21  C   UNL     1       9.108  15.377  21.445  0.00  0.00     0.054 C 
HETATM   22  C   UNL     1       8.404  15.833  22.707  0.00  0.00    -0.026 C 
ENDBRANCH  11  12
BRANCH   9  23
HETATM   23  N   UNL     1       6.868   6.994  20.984  0.00  0.00    -0.271 NA
HETATM   24  H   UNL     1       6.323   6.362  21.551  0.00  0.00     0.127 HD
HETATM   25  H   UNL     1       7.729   7.354  21.366  0.00  0.00     0.127 HD
ENDBRANCH   9  23
TORSDOF 2
ENDMDL
MODEL 4
REMARK VINA RESULT:    -7.871      2.757      4.691
REMARK INTER + INTRA:          -8.876
REMARK INTER:                  -8.458
REMARK INTRA:                  -0.418
REMARK UNBOUND:                -0.314
REMARK  2 active torsions:
REMARK  status: ('A' for Active; 'I' for Inactive)
REMARK    1  A    between atoms: C_9  and  N_10 
REMARK    2  A    between atoms: C_12  and  C_13 
REMARK       I    between atoms: C_13  and  N_15 
ROOT
HETATM    1  C   UNL     1       7.981  15.533  22.547  0.00  0.00     0.048 C 
HETATM    2  C   UNL     1       6.555  15.138  22.790  0.00  0.00    -0.061 A 
HETATM    3  C   UNL     1       6.018  13.964  22.246  0.00  0.00     0.023 A 
HETATM    4  C   UNL     1       5.743  15.932  23.597  0.00  0.00     0.009 A 
HETATM    5  C   UNL     1       4.420  15.562  23.838  0.00  0.00     0.033 A 
HETATM    6  C   UNL     1       3.871  14.408  23.302  0.00  0.00     0.073 A 
HETATM    7  C   UNL     1       4.668  13.583  22.504  0.00  0.00     0.028 A 
HETATM    8  N   UNL     1       2.580  14.162  23.558  0.00  0.00    -0.218 NA
HETATM    9  C   UNL     1       2.038  13.070  23.032  0.00  0.00     0.200 A 
HETATM   10  N   UNL     1       2.696  12.172  22.319  0.00  0.00    -0.212 NA
HETATM   11  C   UNL     1       3.989  12.455  22.020  0.00  0.00     0.140 A 
ENDROOT
BRANCH  11  12
HETATM   12  C   UNL     1       4.610  11.495  21.024  0.00  0.00     0.273 C 
HETATM   13  O   UNL     1       4.369  11.598  19.824  0.00  0.00    -0.266 OA
HETATM   14  N   UNL     1       5.442  10.492  21.530  0.00  0.00    -0.342 N 
HETATM   15  C   UNL     1       6.115   9.500  20.695  0.00  0.00     0.139 C 
HETATM   16  C   UNL     1       5.720  10.268  22.938  0.00  0.00     0.161 C 
HETATM   17  C   UNL     1       6.193   8.256  21.588  0.00  0.00     0.056 C 
HETATM   18  C   UNL     1       6.189   8.861  22.973  0.00  0.00    -0.056 C 
HETATM   19  C   UNL     1       7.328   7.279  21.431  0.00  0.00    -0.020 C 
HETATM   20  C   UNL     1       6.654   8.205  24.050  0.00  0.00    -0.018 C 
HETATM   21  C   UNL     1       7.286   6.849  23.906  0.00  0.00     0.054 C 
HETATM   22  C   UNL     1       7.799   6.605  22.501  0.00  0.00    -0.026 C 
ENDBRANCH  11  12
BRANCH   9  23
HETATM   23  N   UNL     1       0.685  12.880  23.193  0.00  0.00    -0.271 NA
HETATM   24  H   UNL     1       0.462  11.898  23.265  0.00  0.00     0.127 HD
HETATM   25  H   UNL     1       0.155  13.441  22.544  0.00  0.00     0.127 HD
ENDBRANCH   9  23
TORSDOF 2
ENDMDL
MODEL 5
REMARK VINA RESULT:    -7.813      1.713      6.578
REMARK INTER + INTRA:          -8.813
REMARK INTER:                  -8.454
REMARK INTRA:                  -0.358
REMARK UNBOUND:                -0.314
REMARK  2 active torsions:
REMARK  status: ('A' for Active; 'I' for Inactive)
REMARK    1  A    between atoms: C_9  and  N_10 
REMARK    2  A    between atoms: C_12  and  C_13 
REMARK       I    between atoms: C_13  and  N_15 
ROOT
HETATM    1  C   UNL     1       3.185  12.303  16.859  0.00  0.00     0.048 C 
HETATM    2  C   UNL     1       3.880  11.257  17.679  0.00  0.00    -0.061 A 
HETATM    3  C   UNL     1       4.730  11.602  18.738  0.00  0.00     0.023 A 
HETATM    4  C   UNL     1       3.660   9.908  17.412  0.00  0.00     0.009 A 
HETATM    5  C   UNL     1       4.292   8.931  18.181  0.00  0.00     0.033 A 
HETATM    6  C   UNL     1       5.141   9.254  19.227  0.00  0.00     0.073 A 
HETATM    7  C   UNL     1       5.365  10.600  19.528  0.00  0.00     0.028 A 
HETATM    8  N   UNL     1       5.731   8.245  19.878  0.00  0.00    -0.218 NA
HETATM    9  C   UNL     1       6.564   8.544  20.868  0.00  0.00     0.200 A 
HETATM   10  N   UNL     1       6.810   9.769  21.300  0.00  0.00    -0.212 NA
HETATM   11  C   UNL     1       6.249  10.789  20.601  0.00  0.00     0.140 A 
ENDROOT
BRANCH  11  12
HETATM   12  C   UNL     1       6.748  12.160  21.016  0.00  0.00     0.273 C 
HETATM   13  O   UNL     1       7.870  12.541  20.691  0.00  0.00    -0.266 OA
HETATM   14  N   UNL     1       5.891  12.949  21.788  0.00  0.00    -0.342 N 
HETATM   15  C   UNL     1       6.229  14.291  22.257  0.00  0.00     0.139 C 
HETATM   16  C   UNL     1       4.581  12.542  22.265  0.00  0.00     0.161 C 
HETATM   17  C   UNL     1       5.487  14.414  23.593  0.00  0.00     0.056 C 
HETATM   18  C   UNL     1       4.330  13.461  23.402  0.00  0.00    -0.056 C 
HETATM   19  C   UNL     1       5.004  15.758  24.072  0.00  0.00    -0.020 C 
HETATM   20  C   UNL     1       3.200  13.541  24.125  0.00  0.00    -0.018 C 
HETATM   21  C   UNL     1       3.003  14.654  25.116  0.00  0.00     0.054 C 
HETATM   22  C   UNL     1       3.877  15.852  24.808  0.00  0.00    -0.026 C 
ENDBRANCH  11  12
BRANCH   9  23
HETATM   23  N   UNL     1       7.262   7.515  21.457  0.00  0.00    -0.271 NA
HETATM   24  H   UNL     1       6.746   7.121  22.230  0.00  0.00     0.127 HD
HETATM   25  H   UNL     1       8.228   7.765  21.607  0.00  0.00     0.127 HD
ENDBRANCH   9  23
TORSDOF 2
ENDMDL
MODEL 6
REMARK VINA RESULT:    -7.692      1.978      6.572
REMARK INTER + INTRA:          -8.680
REMARK INTER:                  -8.229
REMARK INTRA:                  -0.451
REMARK UNBOUND:                -0.314
REMARK  2 active torsions:
REMARK  status: ('A' for Active; 'I' for Inactive)
REMARK    1  A    between atoms: C_9  and  N_10 
REMARK    2  A    between atoms: C_12  and  C_13 
REMARK       I    between atoms: C_13  and  N_15 
ROOT
HETATM    1  C   UNL     1       6.427   7.608  23.938  0.00  0.00     0.048 C 
HETATM    2  C   UNL     1       5.961   8.049  22.583  0.00  0.00    -0.061 A 
HETATM    3  C   UNL     1       6.365   9.272  22.031  0.00  0.00     0.023 A 
HETATM    4  C   UNL     1       5.129   7.221  21.832  0.00  0.00     0.009 A 
HETATM    5  C   UNL     1       4.705   7.619  20.564  0.00  0.00     0.033 A 
HETATM    6  C   UNL     1       5.090   8.827  20.007  0.00  0.00     0.073 A 
HETATM    7  C   UNL     1       5.937   9.670  20.731  0.00  0.00     0.028 A 
HETATM    8  N   UNL     1       4.595   9.137  18.803  0.00  0.00    -0.218 NA
HETATM    9  C   UNL     1       4.940  10.302  18.268  0.00  0.00     0.200 A 
HETATM   10  N   UNL     1       5.787  11.158  18.813  0.00  0.00    -0.212 NA
HETATM   11  C   UNL     1       6.243  10.862  20.057  0.00  0.00     0.140 A 
ENDROOT
BRANCH  11  12
HETATM   12  C   UNL     1       7.030  11.986  20.703  0.00  0.00     0.273 C 
HETATM   13  O   UNL     1       8.253  12.030  20.602  0.00  0.00    -0.266 OA
HETATM   14  N   UNL     1       6.309  12.943  21.424  0.00  0.00    -0.342 N 
HETATM   15  C   UNL     1       6.927  14.085  22.095  0.00  0.00     0.139 C 
HETATM   16  C   UNL     1       4.874  12.920  21.642  0.00  0.00     0.161 C 
HETATM   17  C   UNL     1       6.022  14.335  23.307  0.00  0.00     0.056 C 
HETATM   18  C   UNL     1       4.695  13.793  22.829  0.00  0.00    -0.056 C 
HETATM   19  C   UNL     1       5.866  15.726  23.864  0.00  0.00    -0.020 C 
HETATM   20  C   UNL     1       3.524  14.162  23.375  0.00  0.00    -0.018 C 
HETATM   21  C   UNL     1       3.477  15.212  24.449  0.00  0.00     0.054 C 
HETATM   22  C   UNL     1       4.699  16.107  24.424  0.00  0.00    -0.026 C 
ENDBRANCH  11  12
BRANCH   9  23
HETATM   23  N   UNL     1       4.339  10.675  17.088  0.00  0.00    -0.271 NA
HETATM   24  H   UNL     1       3.711  11.452  17.230  0.00  0.00     0.127 HD
HETATM   25  H   UNL     1       3.997   9.873  16.580  0.00  0.00     0.127 HD
ENDBRANCH   9  23
TORSDOF 2
ENDMDL
MODEL 7
REMARK VINA RESULT:    -7.540      3.050      5.176
REMARK INTER + INTRA:          -8.516
REMARK INTER:                  -8.062
REMARK INTRA:                  -0.453
REMARK UNBOUND:                -0.314
REMARK  2 active torsions:
REMARK  status: ('A' for Active; 'I' for Inactive)
REMARK    1  A    between atoms: C_9  and  N_10 
REMARK    2  A    between atoms: C_12  and  C_13 
REMARK       I    between atoms: C_13  and  N_15 
ROOT
HETATM    1  C   UNL     1       8.813  17.484  20.988  0.00  0.00     0.048 C 
HETATM    2  C   UNL     1       9.201  16.256  21.757  0.00  0.00    -0.061 A 
HETATM    3  C   UNL     1       8.490  15.055  21.626  0.00  0.00     0.023 A 
HETATM    4  C   UNL     1      10.309  16.287  22.601  0.00  0.00     0.009 A 
HETATM    5  C   UNL     1      10.683  15.144  23.307  0.00  0.00     0.033 A 
HETATM    6  C   UNL     1       9.988  13.951  23.195  0.00  0.00     0.073 A 
HETATM    7  C   UNL     1       8.883  13.886  22.342  0.00  0.00     0.028 A 
HETATM    8  N   UNL     1      10.400  12.922  23.946  0.00  0.00    -0.218 NA
HETATM    9  C   UNL     1       9.728  11.781  23.863  0.00  0.00     0.200 A 
HETATM   10  N   UNL     1       8.711  11.565  23.045  0.00  0.00    -0.212 NA
HETATM   11  C   UNL     1       8.266  12.626  22.327  0.00  0.00     0.140 A 
ENDROOT
BRANCH  11  12
HETATM   12  C   UNL     1       6.971  12.361  21.584  0.00  0.00     0.273 C 
HETATM   13  O   UNL     1       6.987  11.955  20.425  0.00  0.00    -0.266 OA
HETATM   14  N   UNL     1       5.776  12.615  22.264  0.00  0.00    -0.342 N 
HETATM   15  C   UNL     1       4.452  12.402  21.683  0.00  0.00     0.139 C 
HETATM   16  C   UNL     1       5.677  13.157  23.608  0.00  0.00     0.161 C 
HETATM   17  C   UNL     1       3.580  13.475  22.345  0.00  0.00     0.056 C 
HETATM   18  C   UNL     1       4.297  13.700  23.656  0.00  0.00    -0.056 C 
HETATM   19  C   UNL     1       2.112  13.226  22.571  0.00  0.00    -0.020 C 
HETATM   20  C   UNL     1       3.691  14.235  24.730  0.00  0.00    -0.018 C 
HETATM   21  C   UNL     1       2.224  14.561  24.697  0.00  0.00     0.054 C 
HETATM   22  C   UNL     1       1.487  13.765  23.639  0.00  0.00    -0.026 C 
ENDBRANCH  11  12
BRANCH   9  23
HETATM   23  N   UNL     1      10.075  10.763  24.720  0.00  0.00    -0.271 NA
HETATM   24  H   UNL     1      10.917  10.988  25.230  0.00  0.00     0.127 HD
HETATM   25  H   UNL     1      10.020   9.864  24.266  0.00  0.00     0.127 HD
ENDBRANCH   9  23
TORSDOF 2
ENDMDL
MODEL 8
REMARK VINA RESULT:    -7.452      2.869      5.576
REMARK INTER + INTRA:          -8.420
REMARK INTER:                  -7.992
REMARK INTRA:                  -0.428
REMARK UNBOUND:                -0.314
REMARK  2 active torsions:
REMARK  status: ('A' for Active; 'I' for Inactive)
REMARK    1  A    between atoms: C_9  and  N_10 
REMARK    2  A    between atoms: C_12  and  C_13 
REMARK       I    between atoms: C_13  and  N_15 
ROOT
HETATM    1  C   UNL     1       8.237   7.565  23.840  0.00  0.00     0.048 C 
HETATM    2  C   UNL     1       8.761   8.933  23.516  0.00  0.00    -0.061 A 
HETATM    3  C   UNL     1       7.967   9.885  22.863  0.00  0.00     0.023 A 
HETATM    4  C   UNL     1      10.055   9.287  23.891  0.00  0.00     0.009 A 
HETATM    5  C   UNL     1      10.542  10.562  23.605  0.00  0.00     0.033 A 
HETATM    6  C   UNL     1       9.773  11.514  22.955  0.00  0.00     0.073 A 
HETATM    7  C   UNL     1       8.465  11.191  22.582  0.00  0.00     0.028 A 
HETATM    8  N   UNL     1      10.345  12.694  22.688  0.00  0.00    -0.218 NA
HETATM    9  C   UNL     1       9.625  13.605  22.046  0.00  0.00     0.200 A 
HETATM   10  N   UNL     1       8.357  13.455  21.700  0.00  0.00    -0.212 NA
HETATM   11  C   UNL     1       7.801  12.238  21.926  0.00  0.00     0.140 A 
ENDROOT
BRANCH  11  12
HETATM   12  C   UNL     1       6.426  12.071  21.309  0.00  0.00     0.273 C 
HETATM   13  O   UNL     1       6.304  11.677  20.152  0.00  0.00    -0.266 OA
HETATM   14  N   UNL     1       5.321  12.400  22.101  0.00  0.00    -0.342 N 
HETATM   15  C   UNL     1       3.937  12.285  21.648  0.00  0.00     0.139 C 
HETATM   16  C   UNL     1       5.389  12.933  23.450  0.00  0.00     0.161 C 
HETATM   17  C   UNL     1       3.209  13.409  22.395  0.00  0.00     0.056 C 
HETATM   18  C   UNL     1       4.062  13.570  23.632  0.00  0.00    -0.056 C 
HETATM   19  C   UNL     1       1.755  13.261  22.759  0.00  0.00    -0.020 C 
HETATM   20  C   UNL     1       3.599  14.134  24.761  0.00  0.00    -0.018 C 
HETATM   21  C   UNL     1       2.162  14.562  24.869  0.00  0.00     0.054 C 
HETATM   22  C   UNL     1       1.274  13.830  23.883  0.00  0.00    -0.026 C 
ENDBRANCH  11  12
BRANCH   9  23
HETATM   23  N   UNL     1      10.249  14.770  21.665  0.00  0.00    -0.271 NA
HETATM   24  H   UNL     1      10.798  14.633  20.830  0.00  0.00     0.127 HD
HETATM   25  H   UNL     1      10.685  15.228  22.452  0.00  0.00     0.127 HD
ENDBRANCH   9  23
TORSDOF 2
ENDMDL
MODEL 9
REMARK VINA RESULT:    -7.397      3.636      5.513
REMARK INTER + INTRA:          -8.360
REMARK INTER:                  -8.046
REMARK INTRA:                  -0.314
REMARK UNBOUND:                -0.314
REMARK  2 active torsions:
REMARK  status: ('A' for Active; 'I' for Inactive)
REMARK    1  A    between atoms: C_9  and  N_10 
REMARK    2  A    between atoms: C_12  and  C_13 
REMARK       I    between atoms: C_13  and  N_15 
ROOT
HETATM    1  C   UNL     1       8.075  14.927  22.519  0.00  0.00     0.048 C 
HETATM    2  C   UNL     1       6.623  14.909  22.895  0.00  0.00    -0.061 A 
HETATM    3  C   UNL     1       5.855  13.741  22.793  0.00  0.00     0.023 A 
HETATM    4  C   UNL     1       6.019  16.064  23.386  0.00  0.00     0.009 A 
HETATM    5  C   UNL     1       4.673  16.049  23.751  0.00  0.00     0.033 A 
HETATM    6  C   UNL     1       3.897  14.906  23.650  0.00  0.00     0.073 A 
HETATM    7  C   UNL     1       4.481  13.728  23.177  0.00  0.00     0.028 A 
HETATM    8  N   UNL     1       2.605  15.005  23.985  0.00  0.00    -0.218 NA
HETATM    9  C   UNL     1       1.847  13.921  23.871  0.00  0.00     0.200 A 
HETATM   10  N   UNL     1       2.289  12.730  23.505  0.00  0.00    -0.212 NA
HETATM   11  C   UNL     1       3.586  12.650  23.117  0.00  0.00     0.140 A 
ENDROOT
BRANCH  11  12
HETATM   12  C   UNL     1       3.960  11.313  22.507  0.00  0.00     0.273 C 
HETATM   13  O   UNL     1       3.994  11.170  21.287  0.00  0.00    -0.266 OA
HETATM   14  N   UNL     1       4.240  10.261  23.385  0.00  0.00    -0.342 N 
HETATM   15  C   UNL     1       4.620   8.920  22.946  0.00  0.00     0.139 C 
HETATM   16  C   UNL     1       4.156  10.336  24.832  0.00  0.00     0.161 C 
HETATM   17  C   UNL     1       4.057   8.002  24.037  0.00  0.00     0.056 C 
HETATM   18  C   UNL     1       4.037   8.914  25.240  0.00  0.00    -0.056 C 
HETATM   19  C   UNL     1       4.741   6.699  24.360  0.00  0.00    -0.020 C 
HETATM   20  C   UNL     1       4.016   8.449  26.501  0.00  0.00    -0.018 C 
HETATM   21  C   UNL     1       4.097   6.973  26.773  0.00  0.00     0.054 C 
HETATM   22  C   UNL     1       4.719   6.214  25.619  0.00  0.00    -0.026 C 
ENDBRANCH  11  12
BRANCH   9  23
HETATM   23  N   UNL     1       0.497  14.051  24.099  0.00  0.00    -0.271 NA
HETATM   24  H   UNL     1       0.180  14.985  23.886  0.00  0.00     0.127 HD
HETATM   25  H   UNL     1       0.233  13.650  24.987  0.00  0.00     0.127 HD
ENDBRANCH   9  23
TORSDOF 2
ENDMDL
