REMARK  2 active torsions:
REMARK  status: ('A' for Active; 'I' for Inactive)
REMARK    1  A    between atoms: C_9  and  N_10 
REMARK    2  A    between atoms: C_12  and  C_13 
REMARK       I    between atoms: C_13  and  N_15 
ROOT
HETATM    1  C   UNL     1       2.600  -0.249   3.974  0.00  0.00     0.048 C 
HETATM    2  C   UNL     1       3.664  -0.234   2.917  0.00  0.00    -0.061 A 
HETATM    3  C   UNL     1       3.932  -1.363   2.132  0.00  0.00     0.023 A 
HETATM    4  C   UNL     1       4.390   0.931   2.681  0.00  0.00     0.009 A 
HETATM    5  C   UNL     1       5.371   0.955   1.689  0.00  0.00     0.033 A 
HETATM    6  C   UNL     1       5.653  -0.154   0.908  0.00  0.00     0.073 A 
HETATM    7  C   UNL     1       4.928  -1.331   1.112  0.00  0.00     0.028 A 
HETATM    8  N   UNL     1       6.641  -0.043   0.012  0.00  0.00    -0.218 NA
HETATM    9  C   UNL     1       6.935  -1.106  -0.727  0.00  0.00     0.200 A 
HETATM   10  N   UNL     1       6.282  -2.255  -0.684  0.00  0.00    -0.212 NA
HETATM   11  C   UNL     1       5.318  -2.377   0.263  0.00  0.00     0.140 A 
ENDROOT
BRANCH  11  12
HETATM   12  C   UNL     1       4.768  -3.784   0.397  0.00  0.00     0.273 C 
HETATM   13  O   UNL     1       3.572  -3.970   0.606  0.00  0.00    -0.266 OA
HETATM   14  N   UNL     1       5.676  -4.842   0.292  0.00  0.00    -0.342 N 
HETATM   15  C   UNL     1       5.295  -6.249   0.393  0.00  0.00     0.139 C 
HETATM   16  C   UNL     1       7.110  -4.699   0.112  0.00  0.00     0.161 C 
HETATM   17  C   UNL     1       6.526  -6.922   1.011  0.00  0.00     0.056 C 
HETATM   18  C   UNL     1       7.643  -6.006   0.568  0.00  0.00    -0.056 C 
HETATM   19  C   UNL     1       6.848  -8.358   0.689  0.00  0.00    -0.020 C 
HETATM   20  C   UNL     1       8.926  -6.403   0.515  0.00  0.00    -0.018 C 
HETATM   21  C   UNL     1       9.300  -7.826   0.821  0.00  0.00     0.054 C 
HETATM   22  C   UNL     1       8.131  -8.773   0.643  0.00  0.00    -0.026 C 
ENDBRANCH  11  12
BRANCH   9  23
HETATM   23  N   UNL     1       8.026  -1.031  -1.561  0.00  0.00    -0.271 NA
HETATM   24  H   UNL     1       8.248  -0.072  -1.784  0.00  0.00     0.127 HD
HETATM   25  H   UNL     1       7.955  -1.692  -2.320  0.00  0.00     0.127 HD
ENDBRANCH   9  23
TORSDOF 2
