MODEL 1
REMARK VINA RESULT:    -9.129      0.000      0.000
REMARK INTER + INTRA:         -12.503
REMARK INTER:                 -11.174
REMARK INTRA:                  -1.329
REMARK UNBOUND:                -0.973
REMARK  5 active torsions:
REMARK  status: ('A' for Active; 'I' for Inactive)
REMARK       I    between atoms: C_2  and  N_3 
REMARK    1  A    between atoms: C_2  and  C_17 
REMARK    2  A    between atoms: N_3  and  C_5 
REMARK    3  A    between atoms: C_8  and  N_9 
REMARK    4  A    between atoms: C_18  and  O_19 
REMARK    5  A    between atoms: C_25  and  C_26 
REMARK       I    between atoms: C_26  and  N_28 
ROOT
HETATM    1  C   UNL     1       7.977  13.824  25.578  0.00  0.00     0.066 A 
HETATM    2  C   UNL     1       8.766  14.544  26.497  0.00  0.00     0.083 A 
HETATM    3  C   UNL     1      10.153  14.653  26.365  0.00  0.00     0.069 A 
HETATM    4  C   UNL     1      10.732  14.024  25.266  0.00  0.00     0.065 A 
HETATM    5  N   UNL     1      12.028  13.956  24.844  0.00  0.00    -0.277 N 
HETATM    6  H   UNL     1      12.841  14.379  25.279  0.00  0.00     0.189 HD
HETATM    7  N   UNL     1      12.201  13.265  23.709  0.00  0.00    -0.168 NA
HETATM    8  C   UNL     1      10.953  12.922  23.332  0.00  0.00     0.157 C 
HETATM    9  C   UNL     1      10.005  13.290  24.338  0.00  0.00     0.029 A 
HETATM   10  C   UNL     1       8.616  13.134  24.532  0.00  0.00     0.036 A 
ENDROOT
BRANCH   1  11
HETATM   11  C   UNL     1       6.493  13.760  25.786  0.00  0.00     0.260 C 
HETATM   12  O   UNL     1       6.152  13.167  26.816  0.00  0.00    -0.267 OA
HETATM   13  N   UNL     1       5.593  14.361  24.879  0.00  0.00    -0.318 N 
HETATM   14  C   UNL     1       5.990  15.481  24.019  0.00  0.00     0.159 C 
BRANCH  13  15
HETATM   15  C   UNL     1       4.206  13.941  24.790  0.00  0.00     0.037 A 
HETATM   16  C   UNL     1       3.693  13.268  23.679  0.00  0.00     0.032 A 
HETATM   17  C   UNL     1       2.322  12.991  23.557  0.00  0.00     0.031 A 
HETATM   18  C   UNL     1       1.393  13.373  24.527  0.00  0.00     0.030 A 
HETATM   19  C   UNL     1       1.907  13.981  25.670  0.00  0.00     0.031 A 
HETATM   20  C   UNL     1       3.279  14.263  25.797  0.00  0.00     0.032 A 
BRANCH  18  21
HETATM   21  N   UNL     1       0.046  13.138  24.327  0.00  0.00    -0.377 N 
HETATM   22  C   UNL     1      -0.471  12.393  23.170  0.00  0.00     0.149 C 
HETATM   23  C   UNL     1      -0.981  11.005  23.578  0.00  0.00     0.187 C 
HETATM   24  O   UNL     1      -1.934  11.084  24.651  0.00  0.00    -0.388 OA
HETATM   25  C   UNL     1      -1.324  11.687  25.804  0.00  0.00     0.187 C 
HETATM   26  C   UNL     1      -0.837  13.117  25.510  0.00  0.00     0.149 C 
ENDBRANCH  18  21
ENDBRANCH  13  15
ENDBRANCH   1  11
BRANCH   2  27
HETATM   27  O   UNL     1       8.244  15.178  27.598  0.00  0.00    -0.360 OA
HETATM   28  H   UNL     1       8.665  14.780  28.394  0.00  0.00     0.217 HD
ENDBRANCH   2  27
BRANCH   8  29
HETATM   29  C   UNL     1      10.642  12.276  22.040  0.00  0.00     0.275 C 
HETATM   30  O   UNL     1      10.791  11.058  21.912  0.00  0.00    -0.266 OA
HETATM   31  N   UNL     1      10.110  13.058  21.002  0.00  0.00    -0.347 N 
HETATM   32  C   UNL     1       9.993  12.484  19.663  0.00  0.00     0.126 C 
HETATM   33  C   UNL     1       9.744  14.473  21.112  0.00  0.00     0.126 C 
HETATM   34  C   UNL     1       8.609  12.737  19.062  0.00  0.00     0.020 C 
HETATM   35  C   UNL     1       8.250  14.220  19.104  0.00  0.00     0.003 C 
HETATM   36  C   UNL     1       8.363  14.744  20.528  0.00  0.00     0.020 C 
ENDBRANCH   8  29
TORSDOF 5
ENDMDL
MODEL 2
REMARK VINA RESULT:    -8.982      2.682      5.171
REMARK INTER + INTRA:         -12.318
REMARK INTER:                 -11.068
REMARK INTRA:                  -1.250
REMARK UNBOUND:                -0.973
REMARK  5 active torsions:
REMARK  status: ('A' for Active; 'I' for Inactive)
REMARK       I    between atoms: C_2  and  N_3 
REMARK    1  A    between atoms: C_2  and  C_17 
REMARK    2  A    between atoms: N_3  and  C_5 
REMARK    3  A    between atoms: C_8  and  N_9 
REMARK    4  A    between atoms: C_18  and  O_19 
REMARK    5  A    between atoms: C_25  and  C_26 
REMARK       I    between atoms: C_26  and  N_28 
ROOT
HETATM    1  C   UNL     1       9.709  13.406  21.104  0.00  0.00     0.066 A 
HETATM    2  C   UNL     1      10.179  12.648  20.013  0.00  0.00     0.083 A 
HETATM    3  C   UNL     1      11.527  12.315  19.860  0.00  0.00     0.069 A 
HETATM    4  C   UNL     1      12.401  12.757  20.850  0.00  0.00     0.065 A 
HETATM    5  N   UNL     1      13.746  12.590  21.008  0.00  0.00    -0.277 N 
HETATM    6  H   UNL     1      14.380  12.081  20.399  0.00  0.00     0.189 HD
HETATM    7  N   UNL     1      14.244  13.154  22.116  0.00  0.00    -0.168 NA
HETATM    8  C   UNL     1      13.165  13.655  22.751  0.00  0.00     0.157 C 
HETATM    9  C   UNL     1      11.996  13.520  21.938  0.00  0.00     0.029 A 
HETATM   10  C   UNL     1      10.641  13.904  22.033  0.00  0.00     0.036 A 
ENDROOT
BRANCH   1  11
HETATM   11  C   UNL     1       8.246  13.716  21.199  0.00  0.00     0.260 C 
HETATM   12  O   UNL     1       7.877  14.644  20.470  0.00  0.00    -0.267 OA
HETATM   13  N   UNL     1       7.386  12.973  22.038  0.00  0.00    -0.318 N 
HETATM   14  C   UNL     1       7.694  11.596  22.441  0.00  0.00     0.159 C 
BRANCH  13  15
HETATM   15  C   UNL     1       6.118  13.511  22.498  0.00  0.00     0.037 A 
HETATM   16  C   UNL     1       5.985  14.813  22.985  0.00  0.00     0.032 A 
HETATM   17  C   UNL     1       4.783  15.268  23.548  0.00  0.00     0.031 A 
HETATM   18  C   UNL     1       3.655  14.450  23.662  0.00  0.00     0.030 A 
HETATM   19  C   UNL     1       3.759  13.174  23.114  0.00  0.00     0.031 A 
HETATM   20  C   UNL     1       4.962  12.713  22.552  0.00  0.00     0.032 A 
BRANCH  18  21
HETATM   21  N   UNL     1       2.518  14.924  24.288  0.00  0.00    -0.377 N 
HETATM   22  C   UNL     1       1.162  14.509  23.901  0.00  0.00     0.149 C 
HETATM   23  C   UNL     1       0.536  13.584  24.953  0.00  0.00     0.187 C 
HETATM   24  O   UNL     1       0.579  14.169  26.265  0.00  0.00    -0.388 OA
HETATM   25  C   UNL     1       1.941  14.414  26.648  0.00  0.00     0.187 C 
HETATM   26  C   UNL     1       2.638  15.390  25.684  0.00  0.00     0.149 C 
ENDBRANCH  18  21
ENDBRANCH  13  15
ENDBRANCH   1  11
BRANCH   2  27
HETATM   27  O   UNL     1       9.359  12.192  19.010  0.00  0.00    -0.360 OA
HETATM   28  H   UNL     1       8.990  12.981  18.550  0.00  0.00     0.217 HD
ENDBRANCH   2  27
BRANCH   8  29
HETATM   29  C   UNL     1      13.217  14.237  24.108  0.00  0.00     0.275 C 
HETATM   30  O   UNL     1      13.418  15.446  24.249  0.00  0.00    -0.266 OA
HETATM   31  N   UNL     1      12.961  13.407  25.212  0.00  0.00    -0.347 N 
HETATM   32  C   UNL     1      13.211  13.914  26.559  0.00  0.00     0.126 C 
HETATM   33  C   UNL     1      12.551  12.002  25.135  0.00  0.00     0.126 C 
HETATM   34  C   UNL     1      12.028  13.640  27.491  0.00  0.00     0.020 C 
HETATM   35  C   UNL     1      11.641  12.163  27.475  0.00  0.00     0.003 C 
HETATM   36  C   UNL     1      11.366  11.712  26.049  0.00  0.00     0.020 C 
ENDBRANCH   8  29
TORSDOF 5
ENDMDL
MODEL 3
REMARK VINA RESULT:    -8.763      1.733      2.545
REMARK INTER + INTRA:         -12.041
REMARK INTER:                 -10.916
REMARK INTRA:                  -1.125
REMARK UNBOUND:                -0.973
REMARK  5 active torsions:
REMARK  status: ('A' for Active; 'I' for Inactive)
REMARK       I    between atoms: C_2  and  N_3 
REMARK    1  A    between atoms: C_2  and  C_17 
REMARK    2  A    between atoms: N_3  and  C_5 
REMARK    3  A    between atoms: C_8  and  N_9 
REMARK    4  A    between atoms: C_18  and  O_19 
REMARK    5  A    between atoms: C_25  and  C_26 
REMARK       I    between atoms: C_26  and  N_28 
ROOT
HETATM    1  C   UNL     1       7.627  14.478  24.839  0.00  0.00     0.066 A 
HETATM    2  C   UNL     1       7.874  14.781  26.194  0.00  0.00     0.083 A 
HETATM    3  C   UNL     1       9.165  14.825  26.725  0.00  0.00     0.069 A 
HETATM    4  C   UNL     1      10.215  14.566  25.849  0.00  0.00     0.065 A 
HETATM    5  N   UNL     1      11.567  14.550  26.039  0.00  0.00    -0.277 N 
HETATM    6  H   UNL     1      12.070  14.738  26.900  0.00  0.00     0.189 HD
HETATM    7  N   UNL     1      12.274  14.276  24.935  0.00  0.00    -0.168 NA
HETATM    8  C   UNL     1      11.349  14.177  23.960  0.00  0.00     0.157 C 
HETATM    9  C   UNL     1      10.030  14.249  24.510  0.00  0.00     0.029 A 
HETATM   10  C   UNL     1       8.714  14.141  24.012  0.00  0.00     0.036 A 
ENDROOT
BRANCH   1  11
HETATM   11  C   UNL     1       6.212  14.458  24.344  0.00  0.00     0.260 C 
HETATM   12  O   UNL     1       5.847  15.512  23.811  0.00  0.00    -0.267 OA
HETATM   13  N   UNL     1       5.403  13.307  24.466  0.00  0.00    -0.318 N 
HETATM   14  C   UNL     1       5.978  11.961  24.573  0.00  0.00     0.159 C 
BRANCH  13  15
HETATM   15  C   UNL     1       3.953  13.386  24.431  0.00  0.00     0.037 A 
HETATM   16  C   UNL     1       3.199  13.855  25.510  0.00  0.00     0.032 A 
HETATM   17  C   UNL     1       1.797  13.798  25.505  0.00  0.00     0.031 A 
HETATM   18  C   UNL     1       1.074  13.268  24.434  0.00  0.00     0.030 A 
HETATM   19  C   UNL     1       1.816  12.865  23.326  0.00  0.00     0.031 A 
HETATM   20  C   UNL     1       3.221  12.917  23.327  0.00  0.00     0.032 A 
BRANCH  18  21
HETATM   21  N   UNL     1      -0.302  13.171  24.508  0.00  0.00    -0.377 N 
HETATM   22  C   UNL     1      -1.143  12.839  23.349  0.00  0.00     0.149 C 
HETATM   23  C   UNL     1      -1.715  11.420  23.458  0.00  0.00     0.187 C 
HETATM   24  O   UNL     1      -2.396  11.216  24.707  0.00  0.00    -0.388 OA
HETATM   25  C   UNL     1      -1.482  11.409  25.799  0.00  0.00     0.187 C 
HETATM   26  C   UNL     1      -0.904  12.835  25.814  0.00  0.00     0.149 C 
ENDBRANCH  18  21
ENDBRANCH  13  15
ENDBRANCH   1  11
BRANCH   2  27
HETATM   27  O   UNL     1       6.872  15.039  27.098  0.00  0.00    -0.360 OA
HETATM   28  H   UNL     1       6.320  14.226  27.164  0.00  0.00     0.217 HD
ENDBRANCH   2  27
BRANCH   8  29
HETATM   29  C   UNL     1      11.687  14.035  22.529  0.00  0.00     0.275 C 
HETATM   30  O   UNL     1      11.944  15.037  21.857  0.00  0.00    -0.266 OA
HETATM   31  N   UNL     1      11.781  12.745  21.979  0.00  0.00    -0.347 N 
HETATM   32  C   UNL     1      11.907  12.593  20.532  0.00  0.00     0.126 C 
HETATM   33  C   UNL     1      11.657  11.495  22.733  0.00  0.00     0.126 C 
HETATM   34  C   UNL     1      13.032  11.623  20.165  0.00  0.00     0.020 C 
HETATM   35  C   UNL     1      12.869  10.288  20.888  0.00  0.00     0.003 C 
HETATM   36  C   UNL     1      12.775  10.517  22.389  0.00  0.00     0.020 C 
ENDBRANCH   8  29
TORSDOF 5
ENDMDL
MODEL 4
REMARK VINA RESULT:    -8.751      1.658      2.111
REMARK INTER + INTRA:         -12.026
REMARK INTER:                 -10.691
REMARK INTRA:                  -1.335
REMARK UNBOUND:                -0.973
REMARK  5 active torsions:
REMARK  status: ('A' for Active; 'I' for Inactive)
REMARK       I    between atoms: C_2  and  N_3 
REMARK    1  A    between atoms: C_2  and  C_17 
REMARK    2  A    between atoms: N_3  and  C_5 
REMARK    3  A    between atoms: C_8  and  N_9 
REMARK    4  A    between atoms: C_18  and  O_19 
REMARK    5  A    between atoms: C_25  and  C_26 
REMARK       I    between atoms: C_26  and  N_28 
ROOT
HETATM    1  C   UNL     1       8.860  14.128  26.125  0.00  0.00     0.066 A 
HETATM    2  C   UNL     1       9.572  14.883  27.079  0.00  0.00     0.083 A 
HETATM    3  C   UNL     1      10.921  14.650  27.360  0.00  0.00     0.069 A 
HETATM    4  C   UNL     1      11.548  13.637  26.639  0.00  0.00     0.065 A 
HETATM    5  N   UNL     1      12.833  13.179  26.657  0.00  0.00    -0.277 N 
HETATM    6  H   UNL     1      13.601  13.519  27.228  0.00  0.00     0.189 HD
HETATM    7  N   UNL     1      13.075  12.186  25.791  0.00  0.00    -0.168 NA
HETATM    8  C   UNL     1      11.913  12.031  25.126  0.00  0.00     0.157 C 
HETATM    9  C   UNL     1      10.892  12.853  25.699  0.00  0.00     0.029 A 
HETATM   10  C   UNL     1       9.513  13.059  25.484  0.00  0.00     0.036 A 
ENDROOT
BRANCH   1  11
HETATM   11  C   UNL     1       7.416  14.444  25.877  0.00  0.00     0.260 C 
HETATM   12  O   UNL     1       6.727  14.499  26.901  0.00  0.00    -0.267 OA
HETATM   13  N   UNL     1       6.925  14.681  24.574  0.00  0.00    -0.318 N 
HETATM   14  C   UNL     1       7.794  15.150  23.490  0.00  0.00     0.159 C 
BRANCH  13  15
HETATM   15  C   UNL     1       5.516  14.532  24.251  0.00  0.00     0.037 A 
HETATM   16  C   UNL     1       4.641  15.618  24.181  0.00  0.00     0.032 A 
HETATM   17  C   UNL     1       3.261  15.439  24.000  0.00  0.00     0.031 A 
HETATM   18  C   UNL     1       2.681  14.173  23.885  0.00  0.00     0.030 A 
HETATM   19  C   UNL     1       3.556  13.090  23.882  0.00  0.00     0.031 A 
HETATM   20  C   UNL     1       4.939  13.264  24.066  0.00  0.00     0.032 A 
BRANCH  18  21
HETATM   21  N   UNL     1       1.309  14.049  23.778  0.00  0.00    -0.377 N 
HETATM   22  C   UNL     1       0.663  13.134  22.826  0.00  0.00     0.149 C 
HETATM   23  C   UNL     1       0.037  11.930  23.542  0.00  0.00     0.187 C 
HETATM   24  O   UNL     1      -0.848  12.341  24.597  0.00  0.00    -0.388 OA
HETATM   25  C   UNL     1      -0.124  13.106  25.573  0.00  0.00     0.187 C 
HETATM   26  C   UNL     1       0.488  14.378  24.961  0.00  0.00     0.149 C 
ENDBRANCH  18  21
ENDBRANCH  13  15
ENDBRANCH   1  11
BRANCH   2  27
HETATM   27  O   UNL     1       8.998  15.889  27.818  0.00  0.00    -0.360 OA
HETATM   28  H   UNL     1       9.141  16.731  27.328  0.00  0.00     0.217 HD
ENDBRANCH   2  27
BRANCH   8  29
HETATM   29  C   UNL     1      11.758  11.141  23.956  0.00  0.00     0.275 C 
HETATM   30  O   UNL     1      11.540   9.939  24.125  0.00  0.00    -0.266 OA
HETATM   31  N   UNL     1      11.788  11.702  22.669  0.00  0.00    -0.347 N 
HETATM   32  C   UNL     1      11.844  10.819  21.506  0.00  0.00     0.126 C 
HETATM   33  C   UNL     1      11.874  13.135  22.374  0.00  0.00     0.126 C 
HETATM   34  C   UNL     1      10.816  11.220  20.446  0.00  0.00     0.020 C 
HETATM   35  C   UNL     1      10.948  12.695  20.077  0.00  0.00     0.003 C 
HETATM   36  C   UNL     1      10.849  13.557  21.327  0.00  0.00     0.020 C 
ENDBRANCH   8  29
TORSDOF 5
ENDMDL
MODEL 5
REMARK VINA RESULT:    -8.644      2.420      4.481
REMARK INTER + INTRA:         -11.890
REMARK INTER:                 -11.129
REMARK INTRA:                  -0.761
REMARK UNBOUND:                -0.973
REMARK  5 active torsions:
REMARK  status: ('A' for Active; 'I' for Inactive)
REMARK       I    between atoms: C_2  and  N_3 
REMARK    1  A    between atoms: C_2  and  C_17 
REMARK    2  A    between atoms: N_3  and  C_5 
REMARK    3  A    between atoms: C_8  and  N_9 
REMARK    4  A    between atoms: C_18  and  O_19 
REMARK    5  A    between atoms: C_25  and  C_26 
REMARK       I    between atoms: C_26  and  N_28 
ROOT
HETATM    1  C   UNL     1       8.624  12.544  21.857  0.00  0.00     0.066 A 
HETATM    2  C   UNL     1       8.600  11.869  20.619  0.00  0.00     0.083 A 
HETATM    3  C   UNL     1       9.734  11.748  19.813  0.00  0.00     0.069 A 
HETATM    4  C   UNL     1      10.911  12.317  20.292  0.00  0.00     0.065 A 
HETATM    5  N   UNL     1      12.172  12.358  19.771  0.00  0.00    -0.277 N 
HETATM    6  H   UNL     1      12.491  11.955  18.896  0.00  0.00     0.189 HD
HETATM    7  N   UNL     1      13.066  12.989  20.544  0.00  0.00    -0.168 NA
HETATM    8  C   UNL     1      12.376  13.317  21.655  0.00  0.00     0.157 C 
HETATM    9  C   UNL     1      10.989  13.006  21.496  0.00  0.00     0.029 A 
HETATM   10  C   UNL     1       9.814  13.176  22.259  0.00  0.00     0.036 A 
ENDROOT
BRANCH   1  11
HETATM   11  C   UNL     1       7.365  12.625  22.667  0.00  0.00     0.260 C 
HETATM   12  O   UNL     1       7.106  11.597  23.303  0.00  0.00    -0.267 OA
HETATM   13  N   UNL     1       6.582  13.800  22.700  0.00  0.00    -0.318 N 
HETATM   14  C   UNL     1       7.153  15.122  22.420  0.00  0.00     0.159 C 
BRANCH  13  15
HETATM   15  C   UNL     1       5.179  13.771  23.074  0.00  0.00     0.037 A 
HETATM   16  C   UNL     1       4.361  12.663  22.840  0.00  0.00     0.032 A 
HETATM   17  C   UNL     1       2.980  12.705  23.086  0.00  0.00     0.031 A 
HETATM   18  C   UNL     1       2.342  13.850  23.571  0.00  0.00     0.030 A 
HETATM   19  C   UNL     1       3.162  14.933  23.874  0.00  0.00     0.031 A 
HETATM   20  C   UNL     1       4.546  14.897  23.626  0.00  0.00     0.032 A 
BRANCH  18  21
HETATM   21  N   UNL     1       0.969  13.861  23.731  0.00  0.00    -0.377 N 
HETATM   22  C   UNL     1       0.047  13.256  22.760  0.00  0.00     0.149 C 
HETATM   23  C   UNL     1      -0.579  11.967  23.309  0.00  0.00     0.187 C 
HETATM   24  O   UNL     1      -1.192  12.179  24.592  0.00  0.00    -0.388 OA
HETATM   25  C   UNL     1      -0.208  12.628  25.536  0.00  0.00     0.187 C 
HETATM   26  C   UNL     1       0.433  13.959  25.104  0.00  0.00     0.149 C 
ENDBRANCH  18  21
ENDBRANCH  13  15
ENDBRANCH   1  11
BRANCH   2  27
HETATM   27  O   UNL     1       7.464  11.295  20.102  0.00  0.00    -0.360 OA
HETATM   28  H   UNL     1       7.167  11.858  19.350  0.00  0.00     0.217 HD
ENDBRANCH   2  27
BRANCH   8  29
HETATM   29  C   UNL     1      13.004  13.897  22.861  0.00  0.00     0.275 C 
HETATM   30  O   UNL     1      13.123  15.121  22.962  0.00  0.00    -0.266 OA
HETATM   31  N   UNL     1      13.386  13.039  23.905  0.00  0.00    -0.347 N 
HETATM   32  C   UNL     1      14.190  13.567  25.005  0.00  0.00     0.126 C 
HETATM   33  C   UNL     1      13.134  11.596  23.948  0.00  0.00     0.126 C 
HETATM   34  C   UNL     1      13.622  13.153  26.365  0.00  0.00     0.020 C 
HETATM   35  C   UNL     1      13.428  11.641  26.446  0.00  0.00     0.003 C 
HETATM   36  C   UNL     1      12.558  11.165  25.292  0.00  0.00     0.020 C 
ENDBRANCH   8  29
TORSDOF 5
ENDMDL
MODEL 6
REMARK VINA RESULT:    -8.520      2.310      4.462
REMARK INTER + INTRA:         -11.735
REMARK INTER:                 -11.118
REMARK INTRA:                  -0.617
REMARK UNBOUND:                -0.973
REMARK  5 active torsions:
REMARK  status: ('A' for Active; 'I' for Inactive)
REMARK       I    between atoms: C_2  and  N_3 
REMARK    1  A    between atoms: C_2  and  C_17 
REMARK    2  A    between atoms: N_3  and  C_5 
REMARK    3  A    between atoms: C_8  and  N_9 
REMARK    4  A    between atoms: C_18  and  O_19 
REMARK    5  A    between atoms: C_25  and  C_26 
REMARK       I    between atoms: C_26  and  N_28 
ROOT
HETATM    1  C   UNL     1       8.792  13.797  21.950  0.00  0.00     0.066 A 
HETATM    2  C   UNL     1       9.039  14.630  20.840  0.00  0.00     0.083 A 
HETATM    3  C   UNL     1      10.330  15.014  20.469  0.00  0.00     0.069 A 
HETATM    4  C   UNL     1      11.380  14.525  21.243  0.00  0.00     0.065 A 
HETATM    5  N   UNL     1      12.730  14.691  21.140  0.00  0.00    -0.277 N 
HETATM    6  H   UNL     1      13.234  15.226  20.440  0.00  0.00     0.189 HD
HETATM    7  N   UNL     1      13.437  14.037  22.072  0.00  0.00    -0.168 NA
HETATM    8  C   UNL     1      12.512  13.354  22.776  0.00  0.00     0.157 C 
HETATM    9  C   UNL     1      11.193  13.715  22.355  0.00  0.00     0.029 A 
HETATM   10  C   UNL     1       9.876  13.398  22.752  0.00  0.00     0.036 A 
ENDROOT
BRANCH   1  11
HETATM   11  C   UNL     1       7.377  13.424  22.280  0.00  0.00     0.260 C 
HETATM   12  O   UNL     1       6.936  12.480  21.615  0.00  0.00    -0.267 OA
HETATM   13  N   UNL     1       6.652  14.095  23.288  0.00  0.00    -0.318 N 
HETATM   14  C   UNL     1       7.320  14.787  24.396  0.00  0.00     0.159 C 
BRANCH  13  15
HETATM   15  C   UNL     1       5.200  14.085  23.318  0.00  0.00     0.037 A 
HETATM   16  C   UNL     1       4.446  15.220  23.626  0.00  0.00     0.032 A 
HETATM   17  C   UNL     1       3.053  15.156  23.780  0.00  0.00     0.031 A 
HETATM   18  C   UNL     1       2.339  13.963  23.642  0.00  0.00     0.030 A 
HETATM   19  C   UNL     1       3.075  12.843  23.265  0.00  0.00     0.031 A 
HETATM   20  C   UNL     1       4.472  12.900  23.112  0.00  0.00     0.032 A 
BRANCH  18  21
HETATM   21  N   UNL     1       0.977  13.941  23.872  0.00  0.00    -0.377 N 
HETATM   22  C   UNL     1      -0.004  13.620  22.825  0.00  0.00     0.149 C 
HETATM   23  C   UNL     1      -0.629  12.236  23.046  0.00  0.00     0.187 C 
HETATM   24  O   UNL     1      -1.174  12.104  24.369  0.00  0.00    -0.388 OA
HETATM   25  C   UNL     1      -0.135  12.280  25.345  0.00  0.00     0.187 C 
HETATM   26  C   UNL     1       0.510  13.673  25.248  0.00  0.00     0.149 C 
ENDBRANCH  18  21
ENDBRANCH  13  15
ENDBRANCH   1  11
BRANCH   2  27
HETATM   27  O   UNL     1       8.039  15.140  20.050  0.00  0.00    -0.360 OA
HETATM   28  H   UNL     1       7.302  14.487  20.051  0.00  0.00     0.217 HD
ENDBRANCH   2  27
BRANCH   8  29
HETATM   29  C   UNL     1      12.851  12.363  23.818  0.00  0.00     0.275 C 
HETATM   30  O   UNL     1      13.117  11.202  23.497  0.00  0.00    -0.266 OA
HETATM   31  N   UNL     1      12.935  12.787  25.154  0.00  0.00    -0.347 N 
HETATM   32  C   UNL     1      13.062  11.789  26.214  0.00  0.00     0.126 C 
HETATM   33  C   UNL     1      12.800  14.173  25.611  0.00  0.00     0.126 C 
HETATM   34  C   UNL     1      14.180  12.149  27.195  0.00  0.00     0.020 C 
HETATM   35  C   UNL     1      14.005  13.567  27.735  0.00  0.00     0.003 C 
HETATM   36  C   UNL     1      13.911  14.556  26.582  0.00  0.00     0.020 C 
ENDBRANCH   8  29
TORSDOF 5
ENDMDL
MODEL 7
REMARK VINA RESULT:    -8.377      4.592      6.627
REMARK INTER + INTRA:         -11.554
REMARK INTER:                 -10.623
REMARK INTRA:                  -0.930
REMARK UNBOUND:                -0.973
REMARK  5 active torsions:
REMARK  status: ('A' for Active; 'I' for Inactive)
REMARK       I    between atoms: C_2  and  N_3 
REMARK    1  A    between atoms: C_2  and  C_17 
REMARK    2  A    between atoms: N_3  and  C_5 
REMARK    3  A    between atoms: C_8  and  N_9 
REMARK    4  A    between atoms: C_18  and  O_19 
REMARK    5  A    between atoms: C_25  and  C_26 
REMARK       I    between atoms: C_26  and  N_28 
ROOT
HETATM    1  C   UNL     1       9.137  11.599  23.101  0.00  0.00     0.066 A 
HETATM    2  C   UNL     1      10.504  11.877  22.899  0.00  0.00     0.083 A 
HETATM    3  C   UNL     1      11.127  13.001  23.447  0.00  0.00     0.069 A 
HETATM    4  C   UNL     1      10.335  13.844  24.222  0.00  0.00     0.065 A 
HETATM    5  N   UNL     1      10.632  14.990  24.902  0.00  0.00    -0.277 N 
HETATM    6  H   UNL     1      11.534  15.451  24.967  0.00  0.00     0.189 HD
HETATM    7  N   UNL     1       9.596  15.520  25.565  0.00  0.00    -0.168 NA
HETATM    8  C   UNL     1       8.589  14.645  25.368  0.00  0.00     0.157 C 
HETATM    9  C   UNL     1       8.981  13.628  24.442  0.00  0.00     0.029 A 
HETATM   10  C   UNL     1       8.358  12.524  23.821  0.00  0.00     0.036 A 
ENDROOT
BRANCH   1  11
HETATM   11  C   UNL     1       8.544  10.368  22.485  0.00  0.00     0.260 C 
HETATM   12  O   UNL     1       8.539  10.373  21.249  0.00  0.00    -0.267 OA
HETATM   13  N   UNL     1       8.070   9.300  23.278  0.00  0.00    -0.318 N 
HETATM   14  C   UNL     1       8.567   9.062  24.638  0.00  0.00     0.159 C 
BRANCH  13  15
HETATM   15  C   UNL     1       7.106   8.341  22.767  0.00  0.00     0.037 A 
HETATM   16  C   UNL     1       7.444   7.016  22.478  0.00  0.00     0.032 A 
HETATM   17  C   UNL     1       6.534   6.145  21.861  0.00  0.00     0.031 A 
HETATM   18  C   UNL     1       5.246   6.545  21.496  0.00  0.00     0.030 A 
HETATM   19  C   UNL     1       4.879   7.842  21.846  0.00  0.00     0.031 A 
HETATM   20  C   UNL     1       5.788   8.720  22.461  0.00  0.00     0.032 A 
BRANCH  18  21
HETATM   21  N   UNL     1       4.412   5.668  20.828  0.00  0.00    -0.377 N 
HETATM   22  C   UNL     1       3.126   5.216  21.377  0.00  0.00     0.149 C 
HETATM   23  C   UNL     1       1.943   5.846  20.629  0.00  0.00     0.187 C 
HETATM   24  O   UNL     1       2.040   5.637  19.211  0.00  0.00    -0.388 OA
HETATM   25  C   UNL     1       3.247   6.233  18.710  0.00  0.00     0.187 C 
HETATM   26  C   UNL     1       4.500   5.614  19.355  0.00  0.00     0.149 C 
ENDBRANCH  18  21
ENDBRANCH  13  15
ENDBRANCH   1  11
BRANCH   2  27
HETATM   27  O   UNL     1      11.325  11.079  22.140  0.00  0.00    -0.360 OA
HETATM   28  H   UNL     1      11.575  11.594  21.338  0.00  0.00     0.217 HD
ENDBRANCH   2  27
BRANCH   8  29
HETATM   29  C   UNL     1       7.281  14.744  26.050  0.00  0.00     0.275 C 
HETATM   30  O   UNL     1       7.234  14.795  27.281  0.00  0.00    -0.266 OA
HETATM   31  N   UNL     1       6.118  14.852  25.270  0.00  0.00    -0.347 N 
HETATM   32  C   UNL     1       4.812  14.740  25.917  0.00  0.00     0.126 C 
HETATM   33  C   UNL     1       6.087  14.966  23.810  0.00  0.00     0.126 C 
HETATM   34  C   UNL     1       3.871  15.864  25.479  0.00  0.00     0.020 C 
HETATM   35  C   UNL     1       3.773  15.942  23.957  0.00  0.00     0.003 C 
HETATM   36  C   UNL     1       5.162  16.088  23.353  0.00  0.00     0.020 C 
ENDBRANCH   8  29
TORSDOF 5
ENDMDL
MODEL 8
REMARK VINA RESULT:    -8.367      2.735      9.551
REMARK INTER + INTRA:         -11.540
REMARK INTER:                 -10.290
REMARK INTRA:                  -1.250
REMARK UNBOUND:                -0.973
REMARK  5 active torsions:
REMARK  status: ('A' for Active; 'I' for Inactive)
REMARK       I    between atoms: C_2  and  N_3 
REMARK    1  A    between atoms: C_2  and  C_17 
REMARK    2  A    between atoms: N_3  and  C_5 
REMARK    3  A    between atoms: C_8  and  N_9 
REMARK    4  A    between atoms: C_18  and  O_19 
REMARK    5  A    between atoms: C_25  and  C_26 
REMARK       I    between atoms: C_26  and  N_28 
ROOT
HETATM    1  C   UNL     1       2.193  14.203  25.212  0.00  0.00     0.066 A 
HETATM    2  C   UNL     1       1.903  14.872  26.418  0.00  0.00     0.083 A 
HETATM    3  C   UNL     1       0.804  14.535  27.213  0.00  0.00     0.069 A 
HETATM    4  C   UNL     1       0.001  13.490  26.766  0.00  0.00     0.065 A 
HETATM    5  N   UNL     1      -1.112  12.912  27.304  0.00  0.00    -0.277 N 
HETATM    6  H   UNL     1      -1.572  13.155  28.176  0.00  0.00     0.189 HD
HETATM    7  N   UNL     1      -1.609  11.897  26.584  0.00  0.00    -0.168 NA
HETATM    8  C   UNL     1      -0.741  11.757  25.562  0.00  0.00     0.157 C 
HETATM    9  C   UNL     1       0.231  12.807  25.578  0.00  0.00     0.029 A 
HETATM   10  C   UNL     1       1.305  13.211  24.758  0.00  0.00     0.036 A 
ENDROOT
BRANCH   1  11
HETATM   11  C   UNL     1       3.396  14.620  24.419  0.00  0.00     0.260 C 
HETATM   12  O   UNL     1       3.254  15.683  23.806  0.00  0.00    -0.267 OA
HETATM   13  N   UNL     1       4.582  13.853  24.419  0.00  0.00    -0.318 N 
HETATM   14  C   UNL     1       4.925  12.953  25.526  0.00  0.00     0.159 C 
BRANCH  13  15
HETATM   15  C   UNL     1       5.559  13.960  23.349  0.00  0.00     0.037 A 
HETATM   16  C   UNL     1       5.852  12.899  22.489  0.00  0.00     0.032 A 
HETATM   17  C   UNL     1       6.892  12.980  21.551  0.00  0.00     0.031 A 
HETATM   18  C   UNL     1       7.697  14.115  21.424  0.00  0.00     0.030 A 
HETATM   19  C   UNL     1       7.364  15.202  22.228  0.00  0.00     0.031 A 
HETATM   20  C   UNL     1       6.324  15.125  23.172  0.00  0.00     0.032 A 
BRANCH  18  21
HETATM   21  N   UNL     1       8.752  14.119  20.532  0.00  0.00    -0.377 N 
HETATM   22  C   UNL     1      10.027  14.796  20.806  0.00  0.00     0.149 C 
HETATM   23  C   UNL     1      11.150  13.788  21.085  0.00  0.00     0.187 C 
HETATM   24  O   UNL     1      11.260  12.813  20.036  0.00  0.00    -0.388 OA
HETATM   25  C   UNL     1      10.030  12.081  19.916  0.00  0.00     0.187 C 
HETATM   26  C   UNL     1       8.848  13.003  19.568  0.00  0.00     0.149 C 
ENDBRANCH  18  21
ENDBRANCH  13  15
ENDBRANCH   1  11
BRANCH   2  27
HETATM   27  O   UNL     1       2.662  15.911  26.899  0.00  0.00    -0.360 OA
HETATM   28  H   UNL     1       2.361  16.730  26.443  0.00  0.00     0.217 HD
ENDBRANCH   2  27
BRANCH   8  29
HETATM   29  C   UNL     1      -0.804  10.647  24.588  0.00  0.00     0.275 C 
HETATM   30  O   UNL     1      -1.329  10.826  23.486  0.00  0.00    -0.266 OA
HETATM   31  N   UNL     1      -0.194   9.425  24.914  0.00  0.00    -0.347 N 
HETATM   32  C   UNL     1      -0.424   8.261  24.060  0.00  0.00     0.126 C 
HETATM   33  C   UNL     1       0.594   9.169  26.123  0.00  0.00     0.126 C 
HETATM   34  C   UNL     1       0.885   7.549  23.716  0.00  0.00     0.020 C 
HETATM   35  C   UNL     1       1.679   7.211  24.977  0.00  0.00     0.003 C 
HETATM   36  C   UNL     1       1.909   8.469  25.801  0.00  0.00     0.020 C 
ENDBRANCH   8  29
TORSDOF 5
ENDMDL
MODEL 9
REMARK VINA RESULT:    -8.280      2.785     10.606
REMARK INTER + INTRA:         -11.431
REMARK INTER:                 -10.458
REMARK INTRA:                  -0.973
REMARK UNBOUND:                -0.973
REMARK  5 active torsions:
REMARK  status: ('A' for Active; 'I' for Inactive)
REMARK       I    between atoms: C_2  and  N_3 
REMARK    1  A    between atoms: C_2  and  C_17 
REMARK    2  A    between atoms: N_3  and  C_5 
REMARK    3  A    between atoms: C_8  and  N_9 
REMARK    4  A    between atoms: C_18  and  O_19 
REMARK    5  A    between atoms: C_25  and  C_26 
REMARK       I    between atoms: C_26  and  N_28 
ROOT
HETATM    1  C   UNL     1       1.271  13.492  25.148  0.00  0.00     0.066 A 
HETATM    2  C   UNL     1       0.792  14.061  23.952  0.00  0.00     0.083 A 
HETATM    3  C   UNL     1      -0.456  13.734  23.416  0.00  0.00     0.069 A 
HETATM    4  C   UNL     1      -1.226  12.818  24.129  0.00  0.00     0.065 A 
HETATM    5  N   UNL     1      -2.471  12.310  23.896  0.00  0.00    -0.277 N 
HETATM    6  H   UNL     1      -3.090  12.527  23.122  0.00  0.00     0.189 HD
HETATM    7  N   UNL     1      -2.899  11.452  24.831  0.00  0.00    -0.168 NA
HETATM    8  C   UNL     1      -1.918  11.449  25.757  0.00  0.00     0.157 C 
HETATM    9  C   UNL     1      -0.798  12.215  25.304  0.00  0.00     0.029 A 
HETATM   10  C   UNL     1       0.495  12.508  25.788  0.00  0.00     0.036 A 
ENDROOT
BRANCH   1  11
HETATM   11  C   UNL     1       2.620  13.901  25.661  0.00  0.00     0.260 C 
HETATM   12  O   UNL     1       2.607  14.919  26.362  0.00  0.00    -0.267 OA
HETATM   13  N   UNL     1       3.779  13.148  25.373  0.00  0.00    -0.318 N 
HETATM   14  C   UNL     1       3.716  11.720  25.042  0.00  0.00     0.159 C 
BRANCH  13  15
HETATM   15  C   UNL     1       5.106  13.734  25.447  0.00  0.00     0.037 A 
HETATM   16  C   UNL     1       5.604  14.596  24.468  0.00  0.00     0.032 A 
HETATM   17  C   UNL     1       6.934  15.043  24.491  0.00  0.00     0.031 A 
HETATM   18  C   UNL     1       7.837  14.652  25.482  0.00  0.00     0.030 A 
HETATM   19  C   UNL     1       7.328  13.850  26.501  0.00  0.00     0.031 A 
HETATM   20  C   UNL     1       5.997  13.397  26.481  0.00  0.00     0.032 A 
BRANCH  18  21
HETATM   21  N   UNL     1       9.155  15.065  25.421  0.00  0.00    -0.377 N 
HETATM   22  C   UNL     1      10.160  14.681  26.422  0.00  0.00     0.149 C 
HETATM   23  C   UNL     1      11.159  13.665  25.854  0.00  0.00     0.187 C 
HETATM   24  O   UNL     1      11.752  14.132  24.631  0.00  0.00    -0.388 OA
HETATM   25  C   UNL     1      10.732  14.347  23.643  0.00  0.00     0.187 C 
HETATM   26  C   UNL     1       9.713  15.406  24.096  0.00  0.00     0.149 C 
ENDBRANCH  18  21
ENDBRANCH  13  15
ENDBRANCH   1  11
BRANCH   2  27
HETATM   27  O   UNL     1       1.514  14.965  23.211  0.00  0.00    -0.360 OA
HETATM   28  H   UNL     1       0.876  15.616  22.839  0.00  0.00     0.217 HD
ENDBRANCH   2  27
BRANCH   8  29
HETATM   29  C   UNL     1      -2.029  10.755  27.057  0.00  0.00     0.275 C 
HETATM   30  O   UNL     1      -2.864  11.132  27.884  0.00  0.00    -0.266 OA
HETATM   31  N   UNL     1      -1.225   9.628  27.294  0.00  0.00    -0.347 N 
HETATM   32  C   UNL     1      -1.171   9.060  28.639  0.00  0.00     0.126 C 
HETATM   33  C   UNL     1      -0.328   9.008  26.314  0.00  0.00     0.126 C 
HETATM   34  C   UNL     1      -1.356   7.541  28.616  0.00  0.00     0.020 C 
HETATM   35  C   UNL     1      -0.373   6.879  27.653  0.00  0.00     0.003 C 
HETATM   36  C   UNL     1      -0.505   7.495  26.268  0.00  0.00     0.020 C 
ENDBRANCH   8  29
TORSDOF 5
ENDMDL
