REMARK  5 active torsions:
REMARK  status: ('A' for Active; 'I' for Inactive)
REMARK       I    between atoms: C_2  and  N_3 
REMARK    1  A    between atoms: C_2  and  C_17 
REMARK    2  A    between atoms: N_3  and  C_5 
REMARK    3  A    between atoms: C_8  and  N_9 
REMARK    4  A    between atoms: C_18  and  O_19 
REMARK    5  A    between atoms: C_25  and  C_26 
REMARK       I    between atoms: C_26  and  N_28 
ROOT
HETATM    1  C   UNL     1       3.018  -1.047   0.705  0.00  0.00     0.066 A 
HETATM    2  C   UNL     1       2.629  -2.398   0.606  0.00  0.00     0.083 A 
HETATM    3  C   UNL     1       3.256  -3.411   1.336  0.00  0.00     0.069 A 
HETATM    4  C   UNL     1       4.288  -3.026   2.188  0.00  0.00     0.065 A 
HETATM    5  N   UNL     1       5.075  -3.749   3.037  0.00  0.00    -0.277 N 
HETATM    6  H   UNL     1       5.041  -4.749   3.208  0.00  0.00     0.189 HD
HETATM    7  N   UNL     1       5.963  -3.016   3.722  0.00  0.00    -0.168 NA
HETATM    8  C   UNL     1       5.700  -1.745   3.358  0.00  0.00     0.157 C 
HETATM    9  C   UNL     1       4.722  -1.713   2.314  0.00  0.00     0.029 A 
HETATM   10  C   UNL     1       4.121  -0.718   1.514  0.00  0.00     0.036 A 
ENDROOT
BRANCH   1  11
HETATM   11  C   UNL     1       2.290  -0.018  -0.107  0.00  0.00     0.260 C 
HETATM   12  O   UNL     1       1.751  -0.466  -1.125  0.00  0.00    -0.267 OA
HETATM   13  N   UNL     1       2.222   1.332   0.301  0.00  0.00    -0.318 N 
HETATM   14  C   UNL     1       2.364   1.727   1.707  0.00  0.00     0.159 C 
BRANCH  13  15
HETATM   15  C   UNL     1       1.946   2.401  -0.643  0.00  0.00     0.037 A 
HETATM   16  C   UNL     1       1.909   2.194  -2.024  0.00  0.00     0.032 A 
HETATM   17  C   UNL     1       1.774   3.263  -2.923  0.00  0.00     0.031 A 
HETATM   18  C   UNL     1       1.675   4.590  -2.497  0.00  0.00     0.030 A 
HETATM   19  C   UNL     1       1.639   4.796  -1.120  0.00  0.00     0.031 A 
HETATM   20  C   UNL     1       1.777   3.729  -0.215  0.00  0.00     0.032 A 
BRANCH  18  21
HETATM   21  N   UNL     1       1.613   5.612  -3.425  0.00  0.00    -0.377 N 
HETATM   22  C   UNL     1       0.967   6.903  -3.149  0.00  0.00     0.149 C 
HETATM   23  C   UNL     1       2.001   8.025  -2.987  0.00  0.00     0.187 C 
HETATM   24  O   UNL     1       2.897   8.087  -4.109  0.00  0.00    -0.388 OA
HETATM   25  C   UNL     1       3.609   6.846  -4.236  0.00  0.00     0.187 C 
HETATM   26  C   UNL     1       2.655   5.662  -4.471  0.00  0.00     0.149 C 
ENDBRANCH  18  21
ENDBRANCH  13  15
ENDBRANCH   1  11
BRANCH   2  27
HETATM   27  O   UNL     1       1.621  -2.828  -0.222  0.00  0.00    -0.360 OA
HETATM   28  H   UNL     1       1.404  -2.085  -0.831  0.00  0.00     0.217 HD
ENDBRANCH   2  27
BRANCH   8  29
HETATM   29  C   UNL     1       6.338  -0.570   3.987  0.00  0.00     0.275 C 
HETATM   30  O   UNL     1       6.591   0.428   3.307  0.00  0.00    -0.266 OA
HETATM   31  N   UNL     1       6.576  -0.588   5.371  0.00  0.00    -0.347 N 
HETATM   32  C   UNL     1       7.388   0.469   5.970  0.00  0.00     0.126 C 
HETATM   33  C   UNL     1       6.161  -1.655   6.286  0.00  0.00     0.126 C 
HETATM   34  C   UNL     1       6.721   1.051   7.218  0.00  0.00     0.020 C 
HETATM   35  C   UNL     1       6.353  -0.048   8.212  0.00  0.00     0.003 C 
HETATM   36  C   UNL     1       5.484  -1.096   7.532  0.00  0.00     0.020 C 
ENDBRANCH   8  29
TORSDOF 5
