MODEL 1
REMARK VINA RESULT:    -7.893      0.000      0.000
REMARK INTER + INTRA:         -11.495
REMARK INTER:                 -10.251
REMARK INTRA:                  -1.244
REMARK UNBOUND:                -1.295
REMARK  5 active torsions:
REMARK  status: ('A' for Active; 'I' for Inactive)
REMARK    1  A    between atoms: N8_1  and  C24_2 
REMARK    2  A    between atoms: N8_1  and  C7_8 
REMARK    3  A    between atoms: C2_13  and  N1_14 
REMARK    4  A    between atoms: N1_14  and  C17_15 
REMARK    5  A    between atoms: C14_16  and  C13_19 
ROOT
ATOM      1  C17 FTA A   1       5.047  13.426  24.706  1.00  0.00     0.142 C 
ATOM      2  C14 FTA A   1       6.019  12.492  24.717  1.00  0.00     0.158 C 
ATOM      3  C18 FTA A   1       6.630  12.064  23.477  1.00  0.00     0.069 C 
ATOM      4  N21 FTA A   1       6.991  11.774  22.399  1.00  0.00    -0.197 NA
ENDROOT
BRANCH   2   5
ATOM      5  C13 FTA A   1       6.467  11.922  26.008  1.00  0.00     0.197 A 
ATOM      6  N15 FTA A   1       5.760  11.950  27.208  1.00  0.00    -0.093 NA
ATOM      7  N19 FTA A   1       6.554  11.348  28.175  1.00  0.00    -0.231 N 
ATOM      8  N20 FTA A   1       7.750  10.947  27.597  1.00  0.00    -0.017 NA
ATOM      9  H15 FTA A   1       6.298  11.220  29.165  1.00  0.00     0.200 HD
ATOM     10  N16 FTA A   1       7.693  11.292  26.250  1.00  0.00    -0.090 NA
ENDBRANCH   2   5
BRANCH   1  11
ATOM     11  N1  FTA A   1       3.880  13.158  25.324  1.00  0.00    -0.389 N 
ATOM     12  H11 FTA A   1       3.730  13.569  26.256  1.00  0.00     0.159 HD
BRANCH  11  13
ATOM     13  C2  FTA A   1       2.839  12.352  24.786  1.00  0.00     0.028 A 
ATOM     14  C4  FTA A   1       2.621  11.044  25.211  1.00  0.00     0.031 A 
ATOM     15  C6  FTA A   1       1.738  10.232  24.486  1.00  0.00     0.031 A 
ATOM     16  C7  FTA A   1       1.072  10.691  23.352  1.00  0.00     0.032 A 
ATOM     17  C5  FTA A   1       1.281  12.001  22.958  1.00  0.00     0.031 A 
ATOM     18  C3  FTA A   1       2.163  12.817  23.655  1.00  0.00     0.031 A 
BRANCH  16  19
ATOM     19  N8  FTA A   1       0.343   9.835  22.488  1.00  0.00    -0.356 N 
ATOM     20  H1  FTA A   1      -0.664  10.024  22.375  1.00  0.00     0.166 HD
BRANCH  19  21
ATOM     21  C24 FTA A   1       0.889   8.732  21.763  1.00  0.00     0.032 A 
ATOM     22  C26 FTA A   1       1.566   8.913  20.581  1.00  0.00     0.029 A 
ATOM     23  C28 FTA A   1       1.918   7.799  19.842  1.00  0.00     0.002 A 
ATOM     24  C30 FTA A   1       1.640   6.510  20.265  1.00  0.00     0.000 A 
ATOM     25  C29 FTA A   1       0.999   6.316  21.459  1.00  0.00     0.002 A 
ATOM     26  C27 FTA A   1       0.639   7.442  22.207  1.00  0.00     0.029 A 
ENDBRANCH  19  21
ENDBRANCH  16  19
ENDBRANCH  11  13
ENDBRANCH   1  11
TORSDOF 5
ENDMDL
MODEL 2
REMARK VINA RESULT:    -7.688      1.156      2.690
REMARK INTER + INTRA:         -11.230
REMARK INTER:                 -10.101
REMARK INTRA:                  -1.129
REMARK UNBOUND:                -1.295
REMARK  5 active torsions:
REMARK  status: ('A' for Active; 'I' for Inactive)
REMARK    1  A    between atoms: N8_1  and  C24_2 
REMARK    2  A    between atoms: N8_1  and  C7_8 
REMARK    3  A    between atoms: C2_13  and  N1_14 
REMARK    4  A    between atoms: N1_14  and  C17_15 
REMARK    5  A    between atoms: C14_16  and  C13_19 
ROOT
ATOM      1  C17 FTA A   1       4.976  11.555  26.177  1.00  0.00     0.142 C 
ATOM      2  C14 FTA A   1       6.308  11.746  26.243  1.00  0.00     0.158 C 
ATOM      3  C18 FTA A   1       6.968  11.834  27.528  1.00  0.00     0.069 C 
ATOM      4  N21 FTA A   1       7.355  11.942  28.630  1.00  0.00    -0.197 NA
ENDROOT
BRANCH   2   5
ATOM      5  C13 FTA A   1       7.092  11.848  24.991  1.00  0.00     0.197 A 
ATOM      6  N15 FTA A   1       8.460  12.094  24.895  1.00  0.00    -0.093 NA
ATOM      7  N19 FTA A   1       8.779  12.157  23.545  1.00  0.00    -0.231 N 
ATOM      8  N20 FTA A   1       7.630  11.956  22.795  1.00  0.00    -0.017 NA
ATOM      9  H15 FTA A   1       9.720  12.326  23.161  1.00  0.00     0.200 HD
ATOM     10  N16 FTA A   1       6.584  11.753  23.690  1.00  0.00    -0.090 NA
ENDBRANCH   2   5
BRANCH   1  11
ATOM     11  N1  FTA A   1       4.233  12.402  25.439  1.00  0.00    -0.389 N 
ATOM     12  H11 FTA A   1       4.449  13.408  25.507  1.00  0.00     0.159 HD
BRANCH  11  13
ATOM     13  C2  FTA A   1       3.173  12.015  24.574  1.00  0.00     0.028 A 
ATOM     14  C4  FTA A   1       2.343  10.933  24.857  1.00  0.00     0.031 A 
ATOM     15  C6  FTA A   1       1.475  10.464  23.862  1.00  0.00     0.031 A 
ATOM     16  C7  FTA A   1       1.416  11.044  22.597  1.00  0.00     0.032 A 
ATOM     17  C5  FTA A   1       2.228  12.134  22.341  1.00  0.00     0.031 A 
ATOM     18  C3  FTA A   1       3.106  12.606  23.309  1.00  0.00     0.031 A 
BRANCH  16  19
ATOM     19  N8  FTA A   1       0.705  10.463  21.516  1.00  0.00    -0.356 N 
ATOM     20  H1  FTA A   1      -0.010  11.043  21.055  1.00  0.00     0.166 HD
BRANCH  19  21
ATOM     21  C24 FTA A   1       0.899   9.140  21.016  1.00  0.00     0.032 A 
ATOM     22  C26 FTA A   1       0.076   8.102  21.384  1.00  0.00     0.029 A 
ATOM     23  C28 FTA A   1       0.418   6.819  21.004  1.00  0.00     0.002 A 
ATOM     24  C30 FTA A   1       1.540   6.544  20.241  1.00  0.00     0.000 A 
ATOM     25  C29 FTA A   1       2.347   7.573  19.835  1.00  0.00     0.002 A 
ATOM     26  C27 FTA A   1       2.005   8.874  20.222  1.00  0.00     0.029 A 
ENDBRANCH  19  21
ENDBRANCH  16  19
ENDBRANCH  11  13
ENDBRANCH   1  11
TORSDOF 5
ENDMDL
MODEL 3
REMARK VINA RESULT:    -7.252      3.798      5.343
REMARK INTER + INTRA:         -10.666
REMARK INTER:                  -9.325
REMARK INTRA:                  -1.341
REMARK UNBOUND:                -1.295
REMARK  5 active torsions:
REMARK  status: ('A' for Active; 'I' for Inactive)
REMARK    1  A    between atoms: N8_1  and  C24_2 
REMARK    2  A    between atoms: N8_1  and  C7_8 
REMARK    3  A    between atoms: C2_13  and  N1_14 
REMARK    4  A    between atoms: N1_14  and  C17_15 
REMARK    5  A    between atoms: C14_16  and  C13_19 
ROOT
ATOM      1  C17 FTA A   1       0.845  15.218  21.283  1.00  0.00     0.142 C 
ATOM      2  C14 FTA A   1       1.378  14.755  20.134  1.00  0.00     0.158 C 
ATOM      3  C18 FTA A   1       0.533  14.128  19.141  1.00  0.00     0.069 C 
ATOM      4  N21 FTA A   1      -0.258  13.595  18.459  1.00  0.00    -0.197 NA
ENDROOT
BRANCH   2   5
ATOM      5  C13 FTA A   1       2.831  14.909  19.892  1.00  0.00     0.197 A 
ATOM      6  N15 FTA A   1       3.552  14.351  18.838  1.00  0.00    -0.093 NA
ATOM      7  N19 FTA A   1       4.884  14.703  19.011  1.00  0.00    -0.231 N 
ATOM      8  N20 FTA A   1       5.006  15.472  20.160  1.00  0.00    -0.017 NA
ATOM      9  H15 FTA A   1       5.659  14.436  18.387  1.00  0.00     0.200 HD
ATOM     10  N16 FTA A   1       3.732  15.610  20.701  1.00  0.00    -0.090 NA
ENDBRANCH   2   5
BRANCH   1  11
ATOM     11  N1  FTA A   1       1.378  14.820  22.454  1.00  0.00    -0.389 N 
ATOM     12  H11 FTA A   1       1.781  15.545  23.065  1.00  0.00     0.159 HD
BRANCH  11  13
ATOM     13  C2  FTA A   1       1.426  13.475  22.913  1.00  0.00     0.028 A 
ATOM     14  C4  FTA A   1       2.629  12.794  23.087  1.00  0.00     0.031 A 
ATOM     15  C6  FTA A   1       2.600  11.412  23.316  1.00  0.00     0.031 A 
ATOM     16  C7  FTA A   1       1.407  10.695  23.374  1.00  0.00     0.032 A 
ATOM     17  C5  FTA A   1       0.220  11.391  23.224  1.00  0.00     0.031 A 
ATOM     18  C3  FTA A   1       0.228  12.759  22.982  1.00  0.00     0.031 A 
BRANCH  16  19
ATOM     19  N8  FTA A   1       1.361   9.278  23.394  1.00  0.00    -0.356 N 
ATOM     20  H1  FTA A   1       1.216   8.823  24.307  1.00  0.00     0.166 HD
BRANCH  19  21
ATOM     21  C24 FTA A   1       1.498   8.430  22.254  1.00  0.00     0.032 A 
ATOM     22  C26 FTA A   1       0.420   8.097  21.469  1.00  0.00     0.029 A 
ATOM     23  C28 FTA A   1       0.586   7.138  20.488  1.00  0.00     0.002 A 
ATOM     24  C30 FTA A   1       1.803   6.525  20.246  1.00  0.00     0.000 A 
ATOM     25  C29 FTA A   1       2.894   6.876  20.996  1.00  0.00     0.002 A 
ATOM     26  C27 FTA A   1       2.729   7.844  21.993  1.00  0.00     0.029 A 
ENDBRANCH  19  21
ENDBRANCH  16  19
ENDBRANCH  11  13
ENDBRANCH   1  11
TORSDOF 5
ENDMDL
MODEL 4
REMARK VINA RESULT:    -7.166      2.538      7.368
REMARK INTER + INTRA:         -10.556
REMARK INTER:                  -9.261
REMARK INTRA:                  -1.295
REMARK UNBOUND:                -1.295
REMARK  5 active torsions:
REMARK  status: ('A' for Active; 'I' for Inactive)
REMARK    1  A    between atoms: N8_1  and  C24_2 
REMARK    2  A    between atoms: N8_1  and  C7_8 
REMARK    3  A    between atoms: C2_13  and  N1_14 
REMARK    4  A    between atoms: N1_14  and  C17_15 
REMARK    5  A    between atoms: C14_16  and  C13_19 
ROOT
ATOM      1  C17 FTA A   1       1.497  11.053  20.558  1.00  0.00     0.142 C 
ATOM      2  C14 FTA A   1       1.095  10.235  21.550  1.00  0.00     0.158 C 
ATOM      3  C18 FTA A   1       0.618  10.787  22.800  1.00  0.00     0.069 C 
ATOM      4  N21 FTA A   1       0.313  11.369  23.771  1.00  0.00    -0.197 NA
ENDROOT
BRANCH   2   5
ATOM      5  C13 FTA A   1       1.130   8.769  21.344  1.00  0.00     0.197 A 
ATOM      6  N15 FTA A   1       0.871   7.796  22.308  1.00  0.00    -0.093 NA
ATOM      7  N19 FTA A   1       1.058   6.556  21.711  1.00  0.00    -0.231 N 
ATOM      8  N20 FTA A   1       1.433   6.740  20.389  1.00  0.00    -0.017 NA
ATOM      9  H15 FTA A   1       0.937   5.645  22.177  1.00  0.00     0.200 HD
ATOM     10  N16 FTA A   1       1.468   8.111  20.156  1.00  0.00    -0.090 NA
ENDBRANCH   2   5
BRANCH   1  11
ATOM     11  N1  FTA A   1       2.715  10.867  20.013  1.00  0.00    -0.389 N 
ATOM     12  H11 FTA A   1       2.755  10.536  19.038  1.00  0.00     0.159 HD
BRANCH  11  13
ATOM     13  C2  FTA A   1       3.950  11.092  20.681  1.00  0.00     0.028 A 
ATOM     14  C4  FTA A   1       4.736  10.046  21.159  1.00  0.00     0.031 A 
ATOM     15  C6  FTA A   1       5.815  10.338  22.004  1.00  0.00     0.031 A 
ATOM     16  C7  FTA A   1       6.126  11.641  22.384  1.00  0.00     0.032 A 
ATOM     17  C5  FTA A   1       5.351  12.671  21.881  1.00  0.00     0.031 A 
ATOM     18  C3  FTA A   1       4.269  12.401  21.053  1.00  0.00     0.031 A 
BRANCH  16  19
ATOM     19  N8  FTA A   1       7.074  11.942  23.396  1.00  0.00    -0.356 N 
ATOM     20  H1  FTA A   1       7.966  12.362  23.097  1.00  0.00     0.166 HD
BRANCH  19  21
ATOM     21  C24 FTA A   1       6.893  11.711  24.793  1.00  0.00     0.032 A 
ATOM     22  C26 FTA A   1       5.955  12.402  25.522  1.00  0.00     0.029 A 
ATOM     23  C28 FTA A   1       5.948  12.258  26.897  1.00  0.00     0.002 A 
ATOM     24  C30 FTA A   1       6.828  11.421  27.561  1.00  0.00     0.000 A 
ATOM     25  C29 FTA A   1       7.742  10.698  26.842  1.00  0.00     0.002 A 
ATOM     26  C27 FTA A   1       7.754  10.844  25.451  1.00  0.00     0.029 A 
ENDBRANCH  19  21
ENDBRANCH  16  19
ENDBRANCH  11  13
ENDBRANCH   1  11
TORSDOF 5
ENDMDL
MODEL 5
REMARK VINA RESULT:    -7.143      3.722      4.424
REMARK INTER + INTRA:         -10.525
REMARK INTER:                  -9.344
REMARK INTRA:                  -1.181
REMARK UNBOUND:                -1.295
REMARK  5 active torsions:
REMARK  status: ('A' for Active; 'I' for Inactive)
REMARK    1  A    between atoms: N8_1  and  C24_2 
REMARK    2  A    between atoms: N8_1  and  C7_8 
REMARK    3  A    between atoms: C2_13  and  N1_14 
REMARK    4  A    between atoms: N1_14  and  C17_15 
REMARK    5  A    between atoms: C14_16  and  C13_19 
ROOT
ATOM      1  C17 FTA A   1       1.266  14.339  20.562  1.00  0.00     0.142 C 
ATOM      2  C14 FTA A   1       2.609  14.395  20.660  1.00  0.00     0.158 C 
ATOM      3  C18 FTA A   1       3.439  13.848  19.609  1.00  0.00     0.069 C 
ATOM      4  N21 FTA A   1       3.981  13.317  18.715  1.00  0.00    -0.197 NA
ENDROOT
BRANCH   2   5
ATOM      5  C13 FTA A   1       3.226  15.035  21.845  1.00  0.00     0.197 A 
ATOM      6  N15 FTA A   1       3.122  14.598  23.163  1.00  0.00    -0.093 NA
ATOM      7  N19 FTA A   1       3.807  15.506  23.960  1.00  0.00    -0.231 N 
ATOM      8  N20 FTA A   1       4.337  16.506  23.158  1.00  0.00    -0.017 NA
ATOM      9  H15 FTA A   1       3.907  15.446  24.984  1.00  0.00     0.200 HD
ATOM     10  N16 FTA A   1       3.987  16.210  21.844  1.00  0.00    -0.090 NA
ENDBRANCH   2   5
BRANCH   1  11
ATOM     11  N1  FTA A   1       0.560  13.807  21.578  1.00  0.00    -0.389 N 
ATOM     12  H11 FTA A   1       0.004  14.451  22.160  1.00  0.00     0.159 HD
BRANCH  11  13
ATOM     13  C2  FTA A   1       0.523  12.426  21.910  1.00  0.00     0.028 A 
ATOM     14  C4  FTA A   1       0.575  11.978  23.228  1.00  0.00     0.031 A 
ATOM     15  C6  FTA A   1       0.768  10.612  23.475  1.00  0.00     0.031 A 
ATOM     16  C7  FTA A   1       0.911   9.687  22.445  1.00  0.00     0.032 A 
ATOM     17  C5  FTA A   1       0.832  10.143  21.141  1.00  0.00     0.031 A 
ATOM     18  C3  FTA A   1       0.655  11.495  20.875  1.00  0.00     0.031 A 
BRANCH  16  19
ATOM     19  N8  FTA A   1       1.312   8.344  22.666  1.00  0.00    -0.356 N 
ATOM     20  H1  FTA A   1       0.980   7.888  23.528  1.00  0.00     0.166 HD
BRANCH  19  21
ATOM     21  C24 FTA A   1       2.139   7.574  21.794  1.00  0.00     0.032 A 
ATOM     22  C26 FTA A   1       3.511   7.664  21.836  1.00  0.00     0.029 A 
ATOM     23  C28 FTA A   1       4.246   7.027  20.854  1.00  0.00     0.002 A 
ATOM     24  C30 FTA A   1       3.655   6.278  19.851  1.00  0.00     0.000 A 
ATOM     25  C29 FTA A   1       2.292   6.150  19.820  1.00  0.00     0.002 A 
ATOM     26  C27 FTA A   1       1.544   6.797  20.811  1.00  0.00     0.029 A 
ENDBRANCH  19  21
ENDBRANCH  16  19
ENDBRANCH  11  13
ENDBRANCH   1  11
TORSDOF 5
ENDMDL
MODEL 6
REMARK VINA RESULT:    -7.102      2.533      6.820
REMARK INTER + INTRA:         -10.472
REMARK INTER:                  -9.200
REMARK INTRA:                  -1.272
REMARK UNBOUND:                -1.295
REMARK  5 active torsions:
REMARK  status: ('A' for Active; 'I' for Inactive)
REMARK    1  A    between atoms: N8_1  and  C24_2 
REMARK    2  A    between atoms: N8_1  and  C7_8 
REMARK    3  A    between atoms: C2_13  and  N1_14 
REMARK    4  A    between atoms: N1_14  and  C17_15 
REMARK    5  A    between atoms: C14_16  and  C13_19 
ROOT
ATOM      1  C17 FTA A   1       0.978  10.811  21.037  1.00  0.00     0.142 C 
ATOM      2  C14 FTA A   1       2.245  10.672  20.599  1.00  0.00     0.158 C 
ATOM      3  C18 FTA A   1       2.987   9.464  20.891  1.00  0.00     0.069 C 
ATOM      4  N21 FTA A   1       3.481   8.463  21.249  1.00  0.00    -0.197 NA
ENDROOT
BRANCH   2   5
ATOM      5  C13 FTA A   1       2.865  11.757  19.804  1.00  0.00     0.197 A 
ATOM      6  N15 FTA A   1       4.183  12.198  19.903  1.00  0.00    -0.093 NA
ATOM      7  N19 FTA A   1       4.336  13.257  19.017  1.00  0.00    -0.231 N 
ATOM      8  N20 FTA A   1       3.131  13.485  18.368  1.00  0.00    -0.017 NA
ATOM      9  H15 FTA A   1       5.205  13.789  18.866  1.00  0.00     0.200 HD
ATOM     10  N16 FTA A   1       2.220  12.549  18.847  1.00  0.00    -0.090 NA
ENDBRANCH   2   5
BRANCH   1  11
ATOM     11  N1  FTA A   1       0.651  11.910  21.743  1.00  0.00    -0.389 N 
ATOM     12  H11 FTA A   1      -0.178  12.442  21.439  1.00  0.00     0.159 HD
BRANCH  11  13
ATOM     13  C2  FTA A   1       1.360  12.392  22.877  1.00  0.00     0.028 A 
ATOM     14  C4  FTA A   1       1.931  13.662  22.910  1.00  0.00     0.031 A 
ATOM     15  C6  FTA A   1       2.806  13.987  23.954  1.00  0.00     0.031 A 
ATOM     16  C7  FTA A   1       3.127  13.080  24.961  1.00  0.00     0.032 A 
ATOM     17  C5  FTA A   1       2.533  11.831  24.928  1.00  0.00     0.031 A 
ATOM     18  C3  FTA A   1       1.672  11.485  23.894  1.00  0.00     0.031 A 
BRANCH  16  19
ATOM     19  N8  FTA A   1       4.162  13.310  25.903  1.00  0.00    -0.356 N 
ATOM     20  H1  FTA A   1       3.976  13.993  26.652  1.00  0.00     0.166 HD
BRANCH  19  21
ATOM     21  C24 FTA A   1       5.440  12.674  25.899  1.00  0.00     0.032 A 
ATOM     22  C26 FTA A   1       6.203  12.599  24.757  1.00  0.00     0.029 A 
ATOM     23  C28 FTA A   1       7.347  11.823  24.776  1.00  0.00     0.002 A 
ATOM     24  C30 FTA A   1       7.767  11.146  25.908  1.00  0.00     0.000 A 
ATOM     25  C29 FTA A   1       7.036  11.244  27.062  1.00  0.00     0.002 A 
ATOM     26  C27 FTA A   1       5.876  12.026  27.045  1.00  0.00     0.029 A 
ENDBRANCH  19  21
ENDBRANCH  16  19
ENDBRANCH  11  13
ENDBRANCH   1  11
TORSDOF 5
ENDMDL
MODEL 7
REMARK VINA RESULT:    -7.027      3.807      5.769
REMARK INTER + INTRA:         -10.376
REMARK INTER:                  -9.167
REMARK INTRA:                  -1.208
REMARK UNBOUND:                -1.295
REMARK  5 active torsions:
REMARK  status: ('A' for Active; 'I' for Inactive)
REMARK    1  A    between atoms: N8_1  and  C24_2 
REMARK    2  A    between atoms: N8_1  and  C7_8 
REMARK    3  A    between atoms: C2_13  and  N1_14 
REMARK    4  A    between atoms: N1_14  and  C17_15 
REMARK    5  A    between atoms: C14_16  and  C13_19 
ROOT
ATOM      1  C17 FTA A   1       2.656  15.197  21.905  1.00  0.00     0.142 C 
ATOM      2  C14 FTA A   1       2.328  15.611  20.664  1.00  0.00     0.158 C 
ATOM      3  C18 FTA A   1       2.671  16.947  20.229  1.00  0.00     0.069 C 
ATOM      4  N21 FTA A   1       2.959  18.067  20.034  1.00  0.00    -0.197 NA
ENDROOT
BRANCH   2   5
ATOM      5  C13 FTA A   1       1.628  14.681  19.748  1.00  0.00     0.197 A 
ATOM      6  N15 FTA A   1       2.209  13.959  18.708  1.00  0.00    -0.093 NA
ATOM      7  N19 FTA A   1       1.196  13.250  18.075  1.00  0.00    -0.231 N 
ATOM      8  N20 FTA A   1      -0.010  13.522  18.703  1.00  0.00    -0.017 NA
ATOM      9  H15 FTA A   1       1.321  12.623  17.267  1.00  0.00     0.200 HD
ATOM     10  N16 FTA A   1       0.257  14.400  19.748  1.00  0.00    -0.090 NA
ENDBRANCH   2   5
BRANCH   1  11
ATOM     11  N1  FTA A   1       1.696  14.681  22.695  1.00  0.00    -0.389 N 
ATOM     12  H11 FTA A   1       0.953  15.318  23.019  1.00  0.00     0.159 HD
BRANCH  11  13
ATOM     13  C2  FTA A   1       1.628  13.325  23.115  1.00  0.00     0.028 A 
ATOM     14  C4  FTA A   1       2.763  12.601  23.471  1.00  0.00     0.031 A 
ATOM     15  C6  FTA A   1       2.658  11.216  23.651  1.00  0.00     0.031 A 
ATOM     16  C7  FTA A   1       1.453  10.537  23.484  1.00  0.00     0.032 A 
ATOM     17  C5  FTA A   1       0.329  11.274  23.155  1.00  0.00     0.031 A 
ATOM     18  C3  FTA A   1       0.416  12.646  22.959  1.00  0.00     0.031 A 
BRANCH  16  19
ATOM     19  N8  FTA A   1       1.365   9.122  23.455  1.00  0.00    -0.356 N 
ATOM     20  H1  FTA A   1       1.175   8.642  24.347  1.00  0.00     0.166 HD
BRANCH  19  21
ATOM     21  C24 FTA A   1       1.517   8.308  22.292  1.00  0.00     0.032 A 
ATOM     22  C26 FTA A   1       0.436   7.929  21.532  1.00  0.00     0.029 A 
ATOM     23  C28 FTA A   1       0.627   7.003  20.524  1.00  0.00     0.002 A 
ATOM     24  C30 FTA A   1       1.871   6.469  20.232  1.00  0.00     0.000 A 
ATOM     25  C29 FTA A   1       2.962   6.867  20.957  1.00  0.00     0.002 A 
ATOM     26  C27 FTA A   1       2.770   7.802  21.981  1.00  0.00     0.029 A 
ENDBRANCH  19  21
ENDBRANCH  16  19
ENDBRANCH  11  13
ENDBRANCH   1  11
TORSDOF 5
ENDMDL
MODEL 8
REMARK VINA RESULT:    -7.017      3.326      4.194
REMARK INTER + INTRA:         -10.362
REMARK INTER:                  -9.125
REMARK INTRA:                  -1.237
REMARK UNBOUND:                -1.295
REMARK  5 active torsions:
REMARK  status: ('A' for Active; 'I' for Inactive)
REMARK    1  A    between atoms: N8_1  and  C24_2 
REMARK    2  A    between atoms: N8_1  and  C7_8 
REMARK    3  A    between atoms: C2_13  and  N1_14 
REMARK    4  A    between atoms: N1_14  and  C17_15 
REMARK    5  A    between atoms: C14_16  and  C13_19 
ROOT
ATOM      1  C17 FTA A   1       3.146  14.080  23.818  1.00  0.00     0.142 C 
ATOM      2  C14 FTA A   1       3.927  14.699  22.910  1.00  0.00     0.158 C 
ATOM      3  C18 FTA A   1       4.449  16.021  23.181  1.00  0.00     0.069 C 
ATOM      4  N21 FTA A   1       4.751  17.106  23.509  1.00  0.00    -0.197 NA
ENDROOT
BRANCH   2   5
ATOM      5  C13 FTA A   1       4.257  14.009  21.643  1.00  0.00     0.197 A 
ATOM      6  N15 FTA A   1       4.400  14.609  20.393  1.00  0.00    -0.093 NA
ATOM      7  N19 FTA A   1       4.664  13.601  19.474  1.00  0.00    -0.231 N 
ATOM      8  N20 FTA A   1       4.685  12.380  20.131  1.00  0.00    -0.017 NA
ATOM      9  H15 FTA A   1       4.819  13.739  18.465  1.00  0.00     0.200 HD
ATOM     10  N16 FTA A   1       4.444  12.632  21.478  1.00  0.00    -0.090 NA
ENDBRANCH   2   5
BRANCH   1  11
ATOM     11  N1  FTA A   1       1.948  13.601  23.428  1.00  0.00    -0.389 N 
ATOM     12  H11 FTA A   1       1.236  14.285  23.132  1.00  0.00     0.159 HD
BRANCH  11  13
ATOM     13  C2  FTA A   1       1.593  12.226  23.395  1.00  0.00     0.028 A 
ATOM     14  C4  FTA A   1       1.924  11.349  24.425  1.00  0.00     0.031 A 
ATOM     15  C6  FTA A   1       1.751   9.972  24.228  1.00  0.00     0.031 A 
ATOM     16  C7  FTA A   1       1.260   9.451  23.034  1.00  0.00     0.032 A 
ATOM     17  C5  FTA A   1       0.912  10.337  22.029  1.00  0.00     0.031 A 
ATOM     18  C3  FTA A   1       1.089  11.704  22.200  1.00  0.00     0.031 A 
BRANCH  16  19
ATOM     19  N8  FTA A   1       1.273   8.065  22.736  1.00  0.00    -0.356 N 
ATOM     20  H1  FTA A   1       0.560   7.477  23.191  1.00  0.00     0.166 HD
BRANCH  19  21
ATOM     21  C24 FTA A   1       2.193   7.417  21.857  1.00  0.00     0.032 A 
ATOM     22  C26 FTA A   1       3.547   7.423  22.099  1.00  0.00     0.029 A 
ATOM     23  C28 FTA A   1       4.395   6.930  21.126  1.00  0.00     0.002 A 
ATOM     24  C30 FTA A   1       3.931   6.403  19.932  1.00  0.00     0.000 A 
ATOM     25  C29 FTA A   1       2.583   6.357  19.696  1.00  0.00     0.002 A 
ATOM     26  C27 FTA A   1       1.721   6.858  20.678  1.00  0.00     0.029 A 
ENDBRANCH  19  21
ENDBRANCH  16  19
ENDBRANCH  11  13
ENDBRANCH   1  11
TORSDOF 5
ENDMDL
MODEL 9
REMARK VINA RESULT:    -7.005      2.581      4.646
REMARK INTER + INTRA:         -10.347
REMARK INTER:                  -9.052
REMARK INTRA:                  -1.295
REMARK UNBOUND:                -1.295
REMARK  5 active torsions:
REMARK  status: ('A' for Active; 'I' for Inactive)
REMARK    1  A    between atoms: N8_1  and  C24_2 
REMARK    2  A    between atoms: N8_1  and  C7_8 
REMARK    3  A    between atoms: C2_13  and  N1_14 
REMARK    4  A    between atoms: N1_14  and  C17_15 
REMARK    5  A    between atoms: C14_16  and  C13_19 
ROOT
ATOM      1  C17 FTA A   1       5.650  13.396  24.603  1.00  0.00     0.142 C 
ATOM      2  C14 FTA A   1       4.307  13.446  24.699  1.00  0.00     0.158 C 
ATOM      3  C18 FTA A   1       3.633  12.812  25.812  1.00  0.00     0.069 C 
ATOM      4  N21 FTA A   1       3.223  12.209  26.730  1.00  0.00    -0.197 NA
ENDROOT
BRANCH   2   5
ATOM      5  C13 FTA A   1       3.529  14.167  23.665  1.00  0.00     0.197 A 
ATOM      6  N15 FTA A   1       2.140  14.229  23.576  1.00  0.00    -0.093 NA
ATOM      7  N19 FTA A   1       1.827  14.964  22.439  1.00  0.00    -0.231 N 
ATOM      8  N20 FTA A   1       3.002  15.359  21.816  1.00  0.00    -0.017 NA
ATOM      9  H15 FTA A   1       0.875  15.180  22.111  1.00  0.00     0.200 HD
ATOM     10  N16 FTA A   1       4.058  14.875  22.580  1.00  0.00    -0.090 NA
ENDBRANCH   2   5
BRANCH   1  11
ATOM     11  N1  FTA A   1       6.206  12.951  23.460  1.00  0.00    -0.389 N 
ATOM     12  H11 FTA A   1       6.742  13.627  22.896  1.00  0.00     0.159 HD
BRANCH  11  13
ATOM     13  C2  FTA A   1       6.109  11.619  22.972  1.00  0.00     0.028 A 
ATOM     14  C4  FTA A   1       5.670  11.333  21.682  1.00  0.00     0.031 A 
ATOM     15  C6  FTA A   1       5.379  10.005  21.342  1.00  0.00     0.031 A 
ATOM     16  C7  FTA A   1       5.512   8.961  22.254  1.00  0.00     0.032 A 
ATOM     17  C5  FTA A   1       5.974   9.259  23.524  1.00  0.00     0.031 A 
ATOM     18  C3  FTA A   1       6.255  10.570  23.884  1.00  0.00     0.031 A 
BRANCH  16  19
ATOM     19  N8  FTA A   1       5.029   7.652  22.001  1.00  0.00    -0.356 N 
ATOM     20  H1  FTA A   1       5.684   6.870  22.146  1.00  0.00     0.166 HD
BRANCH  19  21
ATOM     21  C24 FTA A   1       3.709   7.328  21.563  1.00  0.00     0.032 A 
ATOM     22  C26 FTA A   1       2.625   7.435  22.402  1.00  0.00     0.029 A 
ATOM     23  C28 FTA A   1       1.406   6.945  21.975  1.00  0.00     0.002 A 
ATOM     24  C30 FTA A   1       1.230   6.379  20.723  1.00  0.00     0.000 A 
ATOM     25  C29 FTA A   1       2.293   6.302  19.864  1.00  0.00     0.002 A 
ATOM     26  C27 FTA A   1       3.530   6.794  20.296  1.00  0.00     0.029 A 
ENDBRANCH  19  21
ENDBRANCH  16  19
ENDBRANCH  11  13
ENDBRANCH   1  11
TORSDOF 5
ENDMDL
