MODEL 1
REMARK VINA RESULT:    -9.243      0.000      0.000
REMARK INTER + INTRA:         -14.049
REMARK INTER:                 -11.665
REMARK INTRA:                  -2.385
REMARK UNBOUND:                -1.564
REMARK  7 active torsions:
REMARK  status: ('A' for Active; 'I' for Inactive)
REMARK    1  A    between atoms: C_7  and  C_8 
REMARK    2  A    between atoms: C_8  and  C_9 
REMARK    3  A    between atoms: C_16  and  C_20 
REMARK    4  A    between atoms: C_17  and  O_19 
REMARK       I    between atoms: C_20  and  N_22 
REMARK    5  A    between atoms: N_22  and  C_24 
REMARK    6  A    between atoms: C_27  and  N_30 
REMARK    7  A    between atoms: C_35  and  O_36 
ROOT
HETATM    1  C   UNL     1       7.664  14.538  26.040  0.00  0.00     0.071 A 
HETATM    2  N   UNL     1       8.407  15.010  27.054  0.00  0.00    -0.178 NA
HETATM    3  N   UNL     1       9.537  15.432  26.463  0.00  0.00    -0.277 N 
HETATM    4  H   UNL     1      10.277  15.801  27.049  0.00  0.00     0.189 HD
HETATM    5  C   UNL     1       8.318  14.719  24.783  0.00  0.00     0.020 A 
HETATM    6  C   UNL     1       9.576  15.213  25.112  0.00  0.00     0.065 A 
HETATM    7  C   UNL     1       8.032  14.434  23.431  0.00  0.00     0.035 C 
HETATM    8  C   UNL     1       9.030  14.636  22.460  0.00  0.00     0.066 C 
HETATM    9  C   UNL     1      10.324  14.994  22.864  0.00  0.00     0.083 C 
HETATM   10  C   UNL     1      10.610  15.351  24.184  0.00  0.00     0.069 C 
ENDROOT
BRANCH   8  11
HETATM   11  C   UNL     1       8.733  14.418  21.012  0.00  0.00     0.260 C 
HETATM   12  O   UNL     1       8.846  15.415  20.291  0.00  0.00    -0.267 OA
HETATM   13  N   UNL     1       8.413  13.129  20.521  0.00  0.00    -0.318 N 
HETATM   14  C   UNL     1       8.470  12.920  19.083  0.00  0.00     0.159 C 
BRANCH  13  15
HETATM   15  C   UNL     1       7.929  12.044  21.321  0.00  0.00     0.037 C 
HETATM   16  C   UNL     1       8.793  11.053  21.774  0.00  0.00     0.032 C 
HETATM   17  C   UNL     1       8.300   9.905  22.397  0.00  0.00     0.031 C 
HETATM   18  C   UNL     1       6.939   9.674  22.600  0.00  0.00     0.032 C 
HETATM   19  C   UNL     1       6.098  10.753  22.282  0.00  0.00     0.031 C 
HETATM   20  C   UNL     1       6.578  11.922  21.663  0.00  0.00     0.032 C 
BRANCH  18  21
HETATM   21  N   UNL     1       6.445   8.456  23.018  0.00  0.00    -0.351 N 
HETATM   22  C   UNL     1       6.498   8.051  24.437  0.00  0.00     0.152 C 
HETATM   23  C   UNL     1       5.129   7.494  24.858  0.00  0.00     0.187 C 
HETATM   24  O   UNL     1       4.752   6.368  24.049  0.00  0.00    -0.385 OA
HETATM   25  C   UNL     1       4.723   6.737  22.661  0.00  0.00     0.221 C 
HETATM   26  C   UNL     1       6.064   7.320  22.151  0.00  0.00     0.244 C 
BRANCH  26  27
HETATM   27  O   UNL     1       5.887   7.681  20.793  0.00  0.00    -0.374 OA
HETATM   28  H   UNL     1       4.954   7.951  20.718  0.00  0.00     0.212 HD
ENDBRANCH  26  27
ENDBRANCH  18  21
ENDBRANCH  13  15
ENDBRANCH   8  11
BRANCH   9  29
HETATM   29  O   UNL     1      11.399  14.975  22.012  0.00  0.00    -0.360 OA
HETATM   30  H   UNL     1      11.328  15.777  21.447  0.00  0.00     0.217 HD
ENDBRANCH   9  29
BRANCH   1  31
HETATM   31  C   UNL     1       6.480  13.681  26.319  0.00  0.00     0.100 C 
BRANCH  31  32
HETATM   32  C   UNL     1       5.254  14.178  25.594  0.00  0.00    -0.052 A 
HETATM   33  C   UNL     1       4.476  13.278  24.846  0.00  0.00     0.014 A 
HETATM   34  C   UNL     1       3.554  13.741  23.898  0.00  0.00    -0.061 A 
HETATM   35  C   UNL     1       2.877  12.790  22.955  0.00  0.00     0.048 C 
HETATM   36  C   UNL     1       3.359  15.119  23.755  0.00  0.00     0.007 A 
HETATM   37  C   UNL     1       4.073  16.018  24.551  0.00  0.00     0.001 A 
HETATM   38  C   UNL     1       5.013  15.552  25.469  0.00  0.00     0.007 A 
ENDBRANCH  31  32
ENDBRANCH   1  31
TORSDOF 7
ENDMDL
MODEL 2
REMARK VINA RESULT:    -9.087      1.652      2.474
REMARK INTER + INTRA:         -13.838
REMARK INTER:                 -11.727
REMARK INTRA:                  -2.111
REMARK UNBOUND:                -1.564
REMARK  7 active torsions:
REMARK  status: ('A' for Active; 'I' for Inactive)
REMARK    1  A    between atoms: C_7  and  C_8 
REMARK    2  A    between atoms: C_8  and  C_9 
REMARK    3  A    between atoms: C_16  and  C_20 
REMARK    4  A    between atoms: C_17  and  O_19 
REMARK       I    between atoms: C_20  and  N_22 
REMARK    5  A    between atoms: N_22  and  C_24 
REMARK    6  A    between atoms: C_27  and  N_30 
REMARK    7  A    between atoms: C_35  and  O_36 
ROOT
HETATM    1  C   UNL     1       5.779  15.438  24.819  0.00  0.00     0.071 A 
HETATM    2  N   UNL     1       5.495  15.362  26.129  0.00  0.00    -0.178 NA
HETATM    3  N   UNL     1       6.523  14.670  26.647  0.00  0.00    -0.277 N 
HETATM    4  H   UNL     1       6.506  14.452  27.637  0.00  0.00     0.189 HD
HETATM    5  C   UNL     1       7.035  14.830  24.519  0.00  0.00     0.020 A 
HETATM    6  C   UNL     1       7.440  14.255  25.719  0.00  0.00     0.065 A 
HETATM    7  C   UNL     1       7.820  14.619  23.366  0.00  0.00     0.035 C 
HETATM    8  C   UNL     1       8.973  13.816  23.456  0.00  0.00     0.066 C 
HETATM    9  C   UNL     1       9.253  13.141  24.653  0.00  0.00     0.083 C 
HETATM   10  C   UNL     1       8.534  13.393  25.824  0.00  0.00     0.069 C 
ENDROOT
BRANCH   8  11
HETATM   11  C   UNL     1       9.866  13.637  22.272  0.00  0.00     0.260 C 
HETATM   12  O   UNL     1      10.557  14.618  21.975  0.00  0.00    -0.267 OA
HETATM   13  N   UNL     1       9.940  12.394  21.597  0.00  0.00    -0.318 N 
HETATM   14  C   UNL     1      11.055  12.184  20.687  0.00  0.00     0.159 C 
BRANCH  13  15
HETATM   15  C   UNL     1       8.942  11.369  21.657  0.00  0.00     0.037 C 
HETATM   16  C   UNL     1       7.670  11.582  21.137  0.00  0.00     0.032 C 
HETATM   17  C   UNL     1       6.645  10.660  21.353  0.00  0.00     0.031 C 
HETATM   18  C   UNL     1       6.819   9.488  22.092  0.00  0.00     0.032 C 
HETATM   19  C   UNL     1       8.142   9.214  22.470  0.00  0.00     0.031 C 
HETATM   20  C   UNL     1       9.191  10.128  22.252  0.00  0.00     0.032 C 
BRANCH  18  21
HETATM   21  N   UNL     1       5.762   8.692  22.482  0.00  0.00    -0.351 N 
HETATM   22  C   UNL     1       5.158   8.818  23.824  0.00  0.00     0.152 C 
HETATM   23  C   UNL     1       3.628   8.862  23.691  0.00  0.00     0.187 C 
HETATM   24  O   UNL     1       3.126   7.680  23.045  0.00  0.00    -0.385 OA
HETATM   25  C   UNL     1       3.724   7.527  21.748  0.00  0.00     0.221 C 
HETATM   26  C   UNL     1       5.272   7.483  21.785  0.00  0.00     0.244 C 
BRANCH  26  27
HETATM   27  O   UNL     1       5.731   7.375  20.450  0.00  0.00    -0.374 OA
HETATM   28  H   UNL     1       6.087   6.472  20.373  0.00  0.00     0.212 HD
ENDBRANCH  26  27
ENDBRANCH  18  21
ENDBRANCH  13  15
ENDBRANCH   8  11
BRANCH   9  29
HETATM   29  O   UNL     1      10.211  12.164  24.746  0.00  0.00    -0.360 OA
HETATM   30  H   UNL     1      10.750  12.369  25.542  0.00  0.00     0.217 HD
ENDBRANCH   9  29
BRANCH   1  31
HETATM   31  C   UNL     1       4.724  15.840  23.850  0.00  0.00     0.100 C 
BRANCH  31  32
HETATM   32  C   UNL     1       3.753  14.716  23.590  0.00  0.00    -0.052 A 
HETATM   33  C   UNL     1       2.423  14.830  24.029  0.00  0.00     0.014 A 
HETATM   34  C   UNL     1       1.596  13.702  24.119  0.00  0.00    -0.061 A 
HETATM   35  C   UNL     1       0.251  13.785  24.781  0.00  0.00     0.048 C 
HETATM   36  C   UNL     1       2.088  12.463  23.694  0.00  0.00     0.007 A 
HETATM   37  C   UNL     1       3.383  12.356  23.183  0.00  0.00     0.001 A 
HETATM   38  C   UNL     1       4.211  13.476  23.127  0.00  0.00     0.007 A 
ENDBRANCH  31  32
ENDBRANCH   1  31
TORSDOF 7
ENDMDL
MODEL 3
REMARK VINA RESULT:    -8.744      2.905      4.627
REMARK INTER + INTRA:         -13.375
REMARK INTER:                 -11.183
REMARK INTRA:                  -2.192
REMARK UNBOUND:                -1.564
REMARK  7 active torsions:
REMARK  status: ('A' for Active; 'I' for Inactive)
REMARK    1  A    between atoms: C_7  and  C_8 
REMARK    2  A    between atoms: C_8  and  C_9 
REMARK    3  A    between atoms: C_16  and  C_20 
REMARK    4  A    between atoms: C_17  and  O_19 
REMARK       I    between atoms: C_20  and  N_22 
REMARK    5  A    between atoms: N_22  and  C_24 
REMARK    6  A    between atoms: C_27  and  N_30 
REMARK    7  A    between atoms: C_35  and  O_36 
ROOT
HETATM    1  C   UNL     1       9.778  13.167  25.271  0.00  0.00     0.071 A 
HETATM    2  N   UNL     1      10.433  12.636  26.316  0.00  0.00    -0.178 NA
HETATM    3  N   UNL     1      10.439  11.317  26.062  0.00  0.00    -0.277 N 
HETATM    4  H   UNL     1      10.855  10.698  26.748  0.00  0.00     0.189 HD
HETATM    5  C   UNL     1       9.415  12.168  24.317  0.00  0.00     0.020 A 
HETATM    6  C   UNL     1       9.775  10.965  24.918  0.00  0.00     0.065 A 
HETATM    7  C   UNL     1       8.745  12.133  23.076  0.00  0.00     0.035 C 
HETATM    8  C   UNL     1       8.440  10.888  22.493  0.00  0.00     0.066 C 
HETATM    9  C   UNL     1       8.693   9.710  23.210  0.00  0.00     0.083 C 
HETATM   10  C   UNL     1       9.421   9.717  24.403  0.00  0.00     0.069 C 
ENDROOT
BRANCH   8  11
HETATM   11  C   UNL     1       7.801  10.820  21.145  0.00  0.00     0.260 C 
HETATM   12  O   UNL     1       8.581  10.828  20.187  0.00  0.00    -0.267 OA
HETATM   13  N   UNL     1       6.397  10.688  21.011  0.00  0.00    -0.318 N 
HETATM   14  C   UNL     1       5.876  10.289  19.712  0.00  0.00     0.159 C 
BRANCH  13  15
HETATM   15  C   UNL     1       5.442  11.024  22.024  0.00  0.00     0.037 C 
HETATM   16  C   UNL     1       4.902  10.042  22.848  0.00  0.00     0.032 C 
HETATM   17  C   UNL     1       3.844  10.334  23.709  0.00  0.00     0.031 C 
HETATM   18  C   UNL     1       3.263  11.600  23.800  0.00  0.00     0.032 C 
HETATM   19  C   UNL     1       3.923  12.610  23.082  0.00  0.00     0.031 C 
HETATM   20  C   UNL     1       4.998  12.337  22.216  0.00  0.00     0.032 C 
BRANCH  18  21
HETATM   21  N   UNL     1       2.090  11.833  24.487  0.00  0.00    -0.351 N 
HETATM   22  C   UNL     1       1.875  13.086  25.238  0.00  0.00     0.152 C 
HETATM   23  C   UNL     1       0.485  13.649  24.902  0.00  0.00     0.187 C 
HETATM   24  O   UNL     1      -0.551  12.708  25.226  0.00  0.00    -0.385 OA
HETATM   25  C   UNL     1      -0.342  11.472  24.525  0.00  0.00     0.221 C 
HETATM   26  C   UNL     1       1.044  10.836  24.798  0.00  0.00     0.244 C 
BRANCH  26  27
HETATM   27  O   UNL     1       1.137   9.657  24.018  0.00  0.00    -0.374 OA
HETATM   28  H   UNL     1       0.767   9.895  23.149  0.00  0.00     0.212 HD
ENDBRANCH  26  27
ENDBRANCH  18  21
ENDBRANCH  13  15
ENDBRANCH   8  11
BRANCH   9  29
HETATM   29  O   UNL     1       8.212   8.487  22.819  0.00  0.00    -0.360 OA
HETATM   30  H   UNL     1       7.610   8.177  23.532  0.00  0.00     0.217 HD
ENDBRANCH   9  29
BRANCH   1  31
HETATM   31  C   UNL     1       9.273  14.565  25.339  0.00  0.00     0.100 C 
BRANCH  31  32
HETATM   32  C   UNL     1       7.770  14.606  25.446  0.00  0.00    -0.052 A 
HETATM   33  C   UNL     1       7.005  15.035  24.347  0.00  0.00     0.014 A 
HETATM   34  C   UNL     1       5.665  15.413  24.507  0.00  0.00    -0.061 A 
HETATM   35  C   UNL     1       4.911  16.067  23.385  0.00  0.00     0.048 C 
HETATM   36  C   UNL     1       5.069  15.288  25.766  0.00  0.00     0.007 A 
HETATM   37  C   UNL     1       5.800  14.788  26.845  0.00  0.00     0.001 A 
HETATM   38  C   UNL     1       7.142  14.445  26.687  0.00  0.00     0.007 A 
ENDBRANCH  31  32
ENDBRANCH   1  31
TORSDOF 7
ENDMDL
MODEL 4
REMARK VINA RESULT:    -8.714      4.962      8.453
REMARK INTER + INTRA:         -13.334
REMARK INTER:                 -11.361
REMARK INTRA:                  -1.974
REMARK UNBOUND:                -1.564
REMARK  7 active torsions:
REMARK  status: ('A' for Active; 'I' for Inactive)
REMARK    1  A    between atoms: C_7  and  C_8 
REMARK    2  A    between atoms: C_8  and  C_9 
REMARK    3  A    between atoms: C_16  and  C_20 
REMARK    4  A    between atoms: C_17  and  O_19 
REMARK       I    between atoms: C_20  and  N_22 
REMARK    5  A    between atoms: N_22  and  C_24 
REMARK    6  A    between atoms: C_27  and  N_30 
REMARK    7  A    between atoms: C_35  and  O_36 
ROOT
HETATM    1  C   UNL     1       1.283  12.931  23.015  0.00  0.00     0.071 A 
HETATM    2  N   UNL     1       0.888  13.424  21.830  0.00  0.00    -0.178 NA
HETATM    3  N   UNL     1      -0.430  13.164  21.792  0.00  0.00    -0.277 N 
HETATM    4  H   UNL     1      -0.945  13.418  20.957  0.00  0.00     0.189 HD
HETATM    5  C   UNL     1       0.184  12.402  23.756  0.00  0.00     0.020 A 
HETATM    6  C   UNL     1      -0.897  12.483  22.883  0.00  0.00     0.065 A 
HETATM    7  C   UNL     1      -0.002  11.783  25.010  0.00  0.00     0.035 C 
HETATM    8  C   UNL     1      -1.262  11.247  25.334  0.00  0.00     0.066 C 
HETATM    9  C   UNL     1      -2.272  11.224  24.362  0.00  0.00     0.083 C 
HETATM   10  C   UNL     1      -2.136  11.894  23.144  0.00  0.00     0.069 C 
ENDROOT
BRANCH   8  11
HETATM   11  C   UNL     1      -1.510  10.655  26.683  0.00  0.00     0.260 C 
HETATM   12  O   UNL     1      -2.102  11.387  27.483  0.00  0.00    -0.267 OA
HETATM   13  N   UNL     1      -1.139   9.319  26.971  0.00  0.00    -0.318 N 
HETATM   14  C   UNL     1      -1.702   8.703  28.162  0.00  0.00     0.159 C 
BRANCH  13  15
HETATM   15  C   UNL     1      -0.164   8.564  26.242  0.00  0.00     0.037 C 
HETATM   16  C   UNL     1       1.098   8.328  26.776  0.00  0.00     0.032 C 
HETATM   17  C   UNL     1       2.106   7.753  26.001  0.00  0.00     0.031 C 
HETATM   18  C   UNL     1       1.925   7.388  24.666  0.00  0.00     0.032 C 
HETATM   19  C   UNL     1       0.606   7.486  24.196  0.00  0.00     0.031 C 
HETATM   20  C   UNL     1      -0.426   8.053  24.967  0.00  0.00     0.032 C 
BRANCH  18  21
HETATM   21  N   UNL     1       2.972   7.021  23.847  0.00  0.00    -0.351 N 
HETATM   22  C   UNL     1       3.432   5.620  23.767  0.00  0.00     0.152 C 
HETATM   23  C   UNL     1       3.600   5.222  22.292  0.00  0.00     0.187 C 
HETATM   24  O   UNL     1       4.542   6.079  21.625  0.00  0.00    -0.385 OA
HETATM   25  C   UNL     1       4.125   7.449  21.716  0.00  0.00     0.221 C 
HETATM   26  C   UNL     1       3.920   7.935  23.173  0.00  0.00     0.244 C 
BRANCH  26  27
HETATM   27  O   UNL     1       3.470   9.277  23.120  0.00  0.00    -0.374 OA
HETATM   28  H   UNL     1       4.198   9.807  23.488  0.00  0.00     0.212 HD
ENDBRANCH  26  27
ENDBRANCH  18  21
ENDBRANCH  13  15
ENDBRANCH   8  11
BRANCH   9  29
HETATM   29  O   UNL     1      -3.434  10.512  24.517  0.00  0.00    -0.360 OA
HETATM   30  H   UNL     1      -3.541  10.349  25.480  0.00  0.00     0.217 HD
ENDBRANCH   9  29
BRANCH   1  31
HETATM   31  C   UNL     1       2.731  12.727  23.291  0.00  0.00     0.100 C 
BRANCH  31  32
HETATM   32  C   UNL     1       3.320  13.890  24.047  0.00  0.00    -0.052 A 
HETATM   33  C   UNL     1       2.871  14.175  25.348  0.00  0.00     0.014 A 
HETATM   34  C   UNL     1       3.128  15.417  25.943  0.00  0.00    -0.061 A 
HETATM   35  C   UNL     1       2.476  15.800  27.239  0.00  0.00     0.048 C 
HETATM   36  C   UNL     1       3.907  16.353  25.252  0.00  0.00     0.007 A 
HETATM   37  C   UNL     1       4.423  16.048  23.992  0.00  0.00     0.001 A 
HETATM   38  C   UNL     1       4.136  14.822  23.392  0.00  0.00     0.007 A 
ENDBRANCH  31  32
ENDBRANCH   1  31
TORSDOF 7
ENDMDL
MODEL 5
REMARK VINA RESULT:    -8.584      2.314      5.926
REMARK INTER + INTRA:         -13.159
REMARK INTER:                 -11.258
REMARK INTRA:                  -1.901
REMARK UNBOUND:                -1.564
REMARK  7 active torsions:
REMARK  status: ('A' for Active; 'I' for Inactive)
REMARK    1  A    between atoms: C_7  and  C_8 
REMARK    2  A    between atoms: C_8  and  C_9 
REMARK    3  A    between atoms: C_16  and  C_20 
REMARK    4  A    between atoms: C_17  and  O_19 
REMARK       I    between atoms: C_20  and  N_22 
REMARK    5  A    between atoms: N_22  and  C_24 
REMARK    6  A    between atoms: C_27  and  N_30 
REMARK    7  A    between atoms: C_35  and  O_36 
ROOT
HETATM    1  C   UNL     1       3.166  11.526  24.097  0.00  0.00     0.071 A 
HETATM    2  N   UNL     1       2.899  10.745  25.157  0.00  0.00    -0.178 NA
HETATM    3  N   UNL     1       3.728   9.698  25.008  0.00  0.00    -0.277 N 
HETATM    4  H   UNL     1       3.677   8.946  25.685  0.00  0.00     0.189 HD
HETATM    5  C   UNL     1       4.219  10.985  23.300  0.00  0.00     0.020 A 
HETATM    6  C   UNL     1       4.489   9.746  23.872  0.00  0.00     0.065 A 
HETATM    7  C   UNL     1       4.900  11.350  22.119  0.00  0.00     0.035 C 
HETATM    8  C   UNL     1       5.812  10.447  21.542  0.00  0.00     0.066 C 
HETATM    9  C   UNL     1       5.936   9.156  22.076  0.00  0.00     0.083 C 
HETATM   10  C   UNL     1       5.330   8.799  23.284  0.00  0.00     0.069 C 
ENDROOT
BRANCH   8  11
HETATM   11  C   UNL     1       6.604  10.836  20.337  0.00  0.00     0.260 C 
HETATM   12  O   UNL     1       6.270  10.284  19.283  0.00  0.00    -0.267 OA
HETATM   13  N   UNL     1       7.617  11.821  20.419  0.00  0.00    -0.318 N 
HETATM   14  C   UNL     1       8.108  12.391  19.173  0.00  0.00     0.159 C 
BRANCH  13  15
HETATM   15  C   UNL     1       8.277  12.221  21.626  0.00  0.00     0.037 C 
HETATM   16  C   UNL     1       8.594  11.286  22.606  0.00  0.00     0.032 C 
HETATM   17  C   UNL     1       9.069  11.693  23.853  0.00  0.00     0.031 C 
HETATM   18  C   UNL     1       9.251  13.033  24.199  0.00  0.00     0.032 C 
HETATM   19  C   UNL     1       9.078  13.947  23.148  0.00  0.00     0.031 C 
HETATM   20  C   UNL     1       8.610  13.555  21.881  0.00  0.00     0.032 C 
BRANCH  18  21
HETATM   21  N   UNL     1       9.513  13.439  25.491  0.00  0.00    -0.351 N 
HETATM   22  C   UNL     1      10.616  12.844  26.274  0.00  0.00     0.152 C 
HETATM   23  C   UNL     1      11.428  13.965  26.941  0.00  0.00     0.187 C 
HETATM   24  O   UNL     1      10.602  14.767  27.802  0.00  0.00    -0.385 OA
HETATM   25  C   UNL     1       9.509  15.331  27.062  0.00  0.00     0.221 C 
HETATM   26  C   UNL     1       8.638  14.270  26.345  0.00  0.00     0.244 C 
BRANCH  26  27
HETATM   27  O   UNL     1       7.632  14.956  25.622  0.00  0.00    -0.374 OA
HETATM   28  H   UNL     1       6.801  14.498  25.840  0.00  0.00     0.212 HD
ENDBRANCH  26  27
ENDBRANCH  18  21
ENDBRANCH  13  15
ENDBRANCH   8  11
BRANCH   9  29
HETATM   29  O   UNL     1       6.615   8.151  21.436  0.00  0.00    -0.360 OA
HETATM   30  H   UNL     1       5.964   7.687  20.864  0.00  0.00     0.217 HD
ENDBRANCH   9  29
BRANCH   1  31
HETATM   31  C   UNL     1       2.228  12.618  23.721  0.00  0.00     0.100 C 
BRANCH  31  32
HETATM   32  C   UNL     1       2.782  13.973  24.083  0.00  0.00    -0.052 A 
HETATM   33  C   UNL     1       3.800  14.541  23.298  0.00  0.00     0.014 A 
HETATM   34  C   UNL     1       4.568  15.609  23.780  0.00  0.00    -0.061 A 
HETATM   35  C   UNL     1       5.785  16.078  23.037  0.00  0.00     0.048 C 
HETATM   36  C   UNL     1       4.261  16.158  25.030  0.00  0.00     0.007 A 
HETATM   37  C   UNL     1       3.201  15.649  25.782  0.00  0.00     0.001 A 
HETATM   38  C   UNL     1       2.461  14.565  25.311  0.00  0.00     0.007 A 
ENDBRANCH  31  32
ENDBRANCH   1  31
TORSDOF 7
ENDMDL
MODEL 6
REMARK VINA RESULT:    -8.578      2.215      3.296
REMARK INTER + INTRA:         -13.150
REMARK INTER:                 -11.251
REMARK INTRA:                  -1.899
REMARK UNBOUND:                -1.564
REMARK  7 active torsions:
REMARK  status: ('A' for Active; 'I' for Inactive)
REMARK    1  A    between atoms: C_7  and  C_8 
REMARK    2  A    between atoms: C_8  and  C_9 
REMARK    3  A    between atoms: C_16  and  C_20 
REMARK    4  A    between atoms: C_17  and  O_19 
REMARK       I    between atoms: C_20  and  N_22 
REMARK    5  A    between atoms: N_22  and  C_24 
REMARK    6  A    between atoms: C_27  and  N_30 
REMARK    7  A    between atoms: C_35  and  O_36 
ROOT
HETATM    1  C   UNL     1       3.276  15.356  24.550  0.00  0.00     0.071 A 
HETATM    2  N   UNL     1       3.140  15.583  25.867  0.00  0.00    -0.178 NA
HETATM    3  N   UNL     1       4.398  15.536  26.338  0.00  0.00    -0.277 N 
HETATM    4  H   UNL     1       4.541  15.644  27.335  0.00  0.00     0.189 HD
HETATM    5  C   UNL     1       4.649  15.219  24.181  0.00  0.00     0.020 A 
HETATM    6  C   UNL     1       5.339  15.243  25.388  0.00  0.00     0.065 A 
HETATM    7  C   UNL     1       5.370  14.984  22.991  0.00  0.00     0.035 C 
HETATM    8  C   UNL     1       6.757  14.758  23.060  0.00  0.00     0.066 C 
HETATM    9  C   UNL     1       7.377  14.646  24.313  0.00  0.00     0.083 C 
HETATM   10  C   UNL     1       6.700  14.948  25.498  0.00  0.00     0.069 C 
ENDROOT
BRANCH   8  11
HETATM   11  C   UNL     1       7.559  14.583  21.813  0.00  0.00     0.260 C 
HETATM   12  O   UNL     1       7.984  15.626  21.304  0.00  0.00    -0.267 OA
HETATM   13  N   UNL     1       7.852  13.291  21.311  0.00  0.00    -0.318 N 
HETATM   14  C   UNL     1       8.901  13.176  20.309  0.00  0.00     0.159 C 
BRANCH  13  15
HETATM   15  C   UNL     1       7.119  12.103  21.630  0.00  0.00     0.037 C 
HETATM   16  C   UNL     1       7.775  10.962  22.082  0.00  0.00     0.032 C 
HETATM   17  C   UNL     1       7.092   9.753  22.220  0.00  0.00     0.031 C 
HETATM   18  C   UNL     1       5.737   9.605  21.919  0.00  0.00     0.032 C 
HETATM   19  C   UNL     1       5.060  10.799  21.620  0.00  0.00     0.031 C 
HETATM   20  C   UNL     1       5.730  12.029  21.486  0.00  0.00     0.032 C 
BRANCH  18  21
HETATM   21  N   UNL     1       5.120   8.374  21.852  0.00  0.00    -0.351 N 
HETATM   22  C   UNL     1       4.664   7.675  23.072  0.00  0.00     0.152 C 
HETATM   23  C   UNL     1       3.231   7.162  22.858  0.00  0.00     0.187 C 
HETATM   24  O   UNL     1       3.159   6.269  21.734  0.00  0.00    -0.385 OA
HETATM   25  C   UNL     1       3.625   6.923  20.544  0.00  0.00     0.221 C 
HETATM   26  C   UNL     1       5.064   7.483  20.673  0.00  0.00     0.244 C 
BRANCH  26  27
HETATM   27  O   UNL     1       5.381   8.136  19.457  0.00  0.00    -0.374 OA
HETATM   28  H   UNL     1       5.669   9.030  19.713  0.00  0.00     0.212 HD
ENDBRANCH  26  27
ENDBRANCH  18  21
ENDBRANCH  13  15
ENDBRANCH   8  11
BRANCH   9  29
HETATM   29  O   UNL     1       8.662  14.194  24.467  0.00  0.00    -0.360 OA
HETATM   30  H   UNL     1       8.945  14.443  25.375  0.00  0.00     0.217 HD
ENDBRANCH   9  29
BRANCH   1  31
HETATM   31  C   UNL     1       2.088  15.001  23.728  0.00  0.00     0.100 C 
BRANCH  31  32
HETATM   32  C   UNL     1       1.724  13.546  23.880  0.00  0.00    -0.052 A 
HETATM   33  C   UNL     1       0.421  13.191  24.273  0.00  0.00     0.014 A 
HETATM   34  C   UNL     1       0.140  11.905  24.753  0.00  0.00    -0.061 A 
HETATM   35  C   UNL     1      -1.193  11.588  25.365  0.00  0.00     0.048 C 
HETATM   36  C   UNL     1       1.159  10.947  24.768  0.00  0.00     0.007 A 
HETATM   37  C   UNL     1       2.437  11.269  24.307  0.00  0.00     0.001 A 
HETATM   38  C   UNL     1       2.719  12.560  23.861  0.00  0.00     0.007 A 
ENDBRANCH  31  32
ENDBRANCH   1  31
TORSDOF 7
ENDMDL
MODEL 7
REMARK VINA RESULT:    -8.512      2.742      4.236
REMARK INTER + INTRA:         -13.061
REMARK INTER:                 -11.431
REMARK INTRA:                  -1.630
REMARK UNBOUND:                -1.564
REMARK  7 active torsions:
REMARK  status: ('A' for Active; 'I' for Inactive)
REMARK    1  A    between atoms: C_7  and  C_8 
REMARK    2  A    between atoms: C_8  and  C_9 
REMARK    3  A    between atoms: C_16  and  C_20 
REMARK    4  A    between atoms: C_17  and  O_19 
REMARK       I    between atoms: C_20  and  N_22 
REMARK    5  A    between atoms: N_22  and  C_24 
REMARK    6  A    between atoms: C_27  and  N_30 
REMARK    7  A    between atoms: C_35  and  O_36 
ROOT
HETATM    1  C   UNL     1       7.149  14.737  23.145  0.00  0.00     0.071 A 
HETATM    2  N   UNL     1       8.125  14.973  24.036  0.00  0.00    -0.178 NA
HETATM    3  N   UNL     1       8.827  13.828  24.063  0.00  0.00    -0.277 N 
HETATM    4  H   UNL     1       9.606  13.757  24.707  0.00  0.00     0.189 HD
HETATM    5  C   UNL     1       7.274  13.440  22.561  0.00  0.00     0.020 A 
HETATM    6  C   UNL     1       8.319  12.843  23.259  0.00  0.00     0.065 A 
HETATM    7  C   UNL     1       6.572  12.676  21.605  0.00  0.00     0.035 C 
HETATM    8  C   UNL     1       6.932  11.331  21.400  0.00  0.00     0.066 C 
HETATM    9  C   UNL     1       7.892  10.739  22.233  0.00  0.00     0.083 C 
HETATM   10  C   UNL     1       8.650  11.492  23.133  0.00  0.00     0.069 C 
ENDROOT
BRANCH   8  11
HETATM   11  C   UNL     1       6.259  10.520  20.342  0.00  0.00     0.260 C 
HETATM   12  O   UNL     1       6.563  10.808  19.179  0.00  0.00    -0.267 OA
HETATM   13  N   UNL     1       5.389   9.456  20.682  0.00  0.00    -0.318 N 
HETATM   14  C   UNL     1       5.041   8.506  19.638  0.00  0.00     0.159 C 
BRANCH  13  15
HETATM   15  C   UNL     1       4.735   9.306  21.948  0.00  0.00     0.037 C 
HETATM   16  C   UNL     1       4.495   8.044  22.479  0.00  0.00     0.032 C 
HETATM   17  C   UNL     1       3.702   7.886  23.617  0.00  0.00     0.031 C 
HETATM   18  C   UNL     1       3.105   8.958  24.283  0.00  0.00     0.032 C 
HETATM   19  C   UNL     1       3.489  10.229  23.828  0.00  0.00     0.031 C 
HETATM   20  C   UNL     1       4.295  10.408  22.689  0.00  0.00     0.032 C 
BRANCH  18  21
HETATM   21  N   UNL     1       2.158   8.785  25.270  0.00  0.00    -0.351 N 
HETATM   22  C   UNL     1       0.806   9.370  25.150  0.00  0.00     0.152 C 
HETATM   23  C   UNL     1      -0.243   8.305  25.506  0.00  0.00     0.187 C 
HETATM   24  O   UNL     1      -0.049   7.808  26.841  0.00  0.00    -0.385 OA
HETATM   25  C   UNL     1       1.271   7.260  26.984  0.00  0.00     0.221 C 
HETATM   26  C   UNL     1       2.396   8.265  26.634  0.00  0.00     0.244 C 
BRANCH  26  27
HETATM   27  O   UNL     1       3.634   7.590  26.772  0.00  0.00    -0.374 OA
HETATM   28  H   UNL     1       3.566   7.100  27.610  0.00  0.00     0.212 HD
ENDBRANCH  26  27
ENDBRANCH  18  21
ENDBRANCH  13  15
ENDBRANCH   8  11
BRANCH   9  29
HETATM   29  O   UNL     1       8.121   9.387  22.255  0.00  0.00    -0.360 OA
HETATM   30  H   UNL     1       7.543   8.989  21.566  0.00  0.00     0.217 HD
ENDBRANCH   9  29
BRANCH   1  31
HETATM   31  C   UNL     1       5.969  15.641  23.075  0.00  0.00     0.100 C 
BRANCH  31  32
HETATM   32  C   UNL     1       4.852  15.163  23.968  0.00  0.00    -0.052 A 
HETATM   33  C   UNL     1       3.846  14.333  23.442  0.00  0.00     0.014 A 
HETATM   34  C   UNL     1       2.634  14.152  24.122  0.00  0.00    -0.061 A 
HETATM   35  C   UNL     1       1.485  13.442  23.470  0.00  0.00     0.048 C 
HETATM   36  C   UNL     1       2.463  14.750  25.376  0.00  0.00     0.007 A 
HETATM   37  C   UNL     1       3.487  15.512  25.940  0.00  0.00     0.001 A 
HETATM   38  C   UNL     1       4.678  15.715  25.244  0.00  0.00     0.007 A 
ENDBRANCH  31  32
ENDBRANCH   1  31
TORSDOF 7
ENDMDL
MODEL 8
REMARK VINA RESULT:    -8.459      2.845      5.319
REMARK INTER + INTRA:         -12.990
REMARK INTER:                 -11.426
REMARK INTRA:                  -1.564
REMARK UNBOUND:                -1.564
REMARK  7 active torsions:
REMARK  status: ('A' for Active; 'I' for Inactive)
REMARK    1  A    between atoms: C_7  and  C_8 
REMARK    2  A    between atoms: C_8  and  C_9 
REMARK    3  A    between atoms: C_16  and  C_20 
REMARK    4  A    between atoms: C_17  and  O_19 
REMARK       I    between atoms: C_20  and  N_22 
REMARK    5  A    between atoms: N_22  and  C_24 
REMARK    6  A    between atoms: C_27  and  N_30 
REMARK    7  A    between atoms: C_35  and  O_36 
ROOT
HETATM    1  C   UNL     1       9.165  12.657  21.109  0.00  0.00     0.071 A 
HETATM    2  N   UNL     1       9.774  13.508  20.268  0.00  0.00    -0.178 NA
HETATM    3  N   UNL     1       9.213  14.697  20.544  0.00  0.00    -0.277 N 
HETATM    4  H   UNL     1       9.495  15.501  19.994  0.00  0.00     0.189 HD
HETATM    5  C   UNL     1       8.245  13.334  21.965  0.00  0.00     0.020 A 
HETATM    6  C   UNL     1       8.233  14.645  21.498  0.00  0.00     0.065 A 
HETATM    7  C   UNL     1       7.361  12.976  23.005  0.00  0.00     0.035 C 
HETATM    8  C   UNL     1       6.479  13.943  23.522  0.00  0.00     0.066 C 
HETATM    9  C   UNL     1       6.405  15.205  22.915  0.00  0.00     0.083 C 
HETATM   10  C   UNL     1       7.319  15.605  21.937  0.00  0.00     0.069 C 
ENDROOT
BRANCH   8  11
HETATM   11  C   UNL     1       5.586  13.615  24.674  0.00  0.00     0.260 C 
HETATM   12  O   UNL     1       5.801  14.253  25.710  0.00  0.00    -0.267 OA
HETATM   13  N   UNL     1       4.532  12.680  24.534  0.00  0.00    -0.318 N 
HETATM   14  C   UNL     1       3.507  12.657  25.566  0.00  0.00     0.159 C 
BRANCH  13  15
HETATM   15  C   UNL     1       4.456  11.677  23.514  0.00  0.00     0.037 C 
HETATM   16  C   UNL     1       4.494  10.326  23.840  0.00  0.00     0.032 C 
HETATM   17  C   UNL     1       4.603   9.354  22.845  0.00  0.00     0.031 C 
HETATM   18  C   UNL     1       4.684   9.661  21.486  0.00  0.00     0.032 C 
HETATM   19  C   UNL     1       4.483  11.014  21.169  0.00  0.00     0.031 C 
HETATM   20  C   UNL     1       4.362  12.007  22.158  0.00  0.00     0.032 C 
BRANCH  18  21
HETATM   21  N   UNL     1       5.003   8.721  20.529  0.00  0.00    -0.351 N 
HETATM   22  C   UNL     1       5.657   7.446  20.891  0.00  0.00     0.152 C 
HETATM   23  C   UNL     1       4.933   6.286  20.190  0.00  0.00     0.187 C 
HETATM   24  O   UNL     1       4.948   6.448  18.762  0.00  0.00    -0.385 OA
HETATM   25  C   UNL     1       4.340   7.695  18.394  0.00  0.00     0.221 C 
HETATM   26  C   UNL     1       5.003   8.925  19.064  0.00  0.00     0.244 C 
BRANCH  26  27
HETATM   27  O   UNL     1       4.286  10.076  18.655  0.00  0.00    -0.374 OA
HETATM   28  H   UNL     1       4.146   9.964  17.698  0.00  0.00     0.212 HD
ENDBRANCH  26  27
ENDBRANCH  18  21
ENDBRANCH  13  15
ENDBRANCH   8  11
BRANCH   9  29
HETATM   29  O   UNL     1       5.415  16.109  23.203  0.00  0.00    -0.360 OA
HETATM   30  H   UNL     1       5.695  16.590  24.012  0.00  0.00     0.217 HD
ENDBRANCH   9  29
BRANCH   1  31
HETATM   31  C   UNL     1       9.270  11.189  20.889  0.00  0.00     0.100 C 
BRANCH  31  32
HETATM   32  C   UNL     1       9.510  10.451  22.182  0.00  0.00    -0.052 A 
HETATM   33  C   UNL     1       8.585   9.485  22.614  0.00  0.00     0.014 A 
HETATM   34  C   UNL     1       8.582   9.035  23.941  0.00  0.00    -0.061 A 
HETATM   35  C   UNL     1       7.472   8.166  24.456  0.00  0.00     0.048 C 
HETATM   36  C   UNL     1       9.564   9.504  24.820  0.00  0.00     0.007 A 
HETATM   37  C   UNL     1      10.534  10.405  24.377  0.00  0.00     0.001 A 
HETATM   38  C   UNL     1      10.512  10.874  23.064  0.00  0.00     0.007 A 
ENDBRANCH  31  32
ENDBRANCH   1  31
TORSDOF 7
ENDMDL
MODEL 9
REMARK VINA RESULT:    -8.442      2.880      4.212
REMARK INTER + INTRA:         -12.968
REMARK INTER:                 -11.083
REMARK INTRA:                  -1.884
REMARK UNBOUND:                -1.564
REMARK  7 active torsions:
REMARK  status: ('A' for Active; 'I' for Inactive)
REMARK    1  A    between atoms: C_7  and  C_8 
REMARK    2  A    between atoms: C_8  and  C_9 
REMARK    3  A    between atoms: C_16  and  C_20 
REMARK    4  A    between atoms: C_17  and  O_19 
REMARK       I    between atoms: C_20  and  N_22 
REMARK    5  A    between atoms: N_22  and  C_24 
REMARK    6  A    between atoms: C_27  and  N_30 
REMARK    7  A    between atoms: C_35  and  O_36 
ROOT
HETATM    1  C   UNL     1       2.215  14.255  24.254  0.00  0.00     0.071 A 
HETATM    2  N   UNL     1       1.723  14.448  25.488  0.00  0.00    -0.178 NA
HETATM    3  N   UNL     1       2.784  14.861  26.201  0.00  0.00    -0.277 N 
HETATM    4  H   UNL     1       2.659  15.035  27.192  0.00  0.00     0.189 HD
HETATM    5  C   UNL     1       3.597  14.605  24.179  0.00  0.00     0.020 A 
HETATM    6  C   UNL     1       3.954  14.900  25.491  0.00  0.00     0.065 A 
HETATM    7  C   UNL     1       4.598  14.613  23.185  0.00  0.00     0.035 C 
HETATM    8  C   UNL     1       5.928  14.896  23.549  0.00  0.00     0.066 C 
HETATM    9  C   UNL     1       6.256  15.039  24.905  0.00  0.00     0.083 C 
HETATM   10  C   UNL     1       5.274  15.108  25.896  0.00  0.00     0.069 C 
ENDROOT
BRANCH   8  11
HETATM   11  C   UNL     1       6.996  14.987  22.509  0.00  0.00     0.260 C 
HETATM   12  O   UNL     1       7.183  16.115  22.039  0.00  0.00    -0.267 OA
HETATM   13  N   UNL     1       7.767  13.854  22.156  0.00  0.00    -0.318 N 
HETATM   14  C   UNL     1       8.992  14.077  21.404  0.00  0.00     0.159 C 
BRANCH  13  15
HETATM   15  C   UNL     1       7.379  12.495  22.385  0.00  0.00     0.037 C 
HETATM   16  C   UNL     1       6.518  11.843  21.508  0.00  0.00     0.032 C 
HETATM   17  C   UNL     1       5.995  10.587  21.820  0.00  0.00     0.031 C 
HETATM   18  C   UNL     1       6.288   9.915  23.007  0.00  0.00     0.032 C 
HETATM   19  C   UNL     1       7.279  10.513  23.801  0.00  0.00     0.031 C 
HETATM   20  C   UNL     1       7.825  11.774  23.497  0.00  0.00     0.032 C 
BRANCH  18  21
HETATM   21  N   UNL     1       5.611   8.782  23.407  0.00  0.00    -0.351 N 
HETATM   22  C   UNL     1       4.565   8.839  24.449  0.00  0.00     0.152 C 
HETATM   23  C   UNL     1       3.328   8.060  23.972  0.00  0.00     0.187 C 
HETATM   24  O   UNL     1       3.654   6.689  23.689  0.00  0.00    -0.385 OA
HETATM   25  C   UNL     1       4.689   6.615  22.697  0.00  0.00     0.221 C 
HETATM   26  C   UNL     1       5.975   7.384  23.091  0.00  0.00     0.244 C 
BRANCH  26  27
HETATM   27  O   UNL     1       6.891   7.269  22.017  0.00  0.00    -0.374 OA
HETATM   28  H   UNL     1       6.359   7.397  21.211  0.00  0.00     0.212 HD
ENDBRANCH  26  27
ENDBRANCH  18  21
ENDBRANCH  13  15
ENDBRANCH   8  11
BRANCH   9  29
HETATM   29  O   UNL     1       7.551  15.075  25.354  0.00  0.00    -0.360 OA
HETATM   30  H   UNL     1       7.512  15.097  26.336  0.00  0.00     0.217 HD
ENDBRANCH   9  29
BRANCH   1  31
HETATM   31  C   UNL     1       1.431  13.483  23.252  0.00  0.00     0.100 C 
BRANCH  31  32
HETATM   32  C   UNL     1       0.310  12.711  23.901  0.00  0.00    -0.052 A 
HETATM   33  C   UNL     1       0.540  11.402  24.359  0.00  0.00     0.014 A 
HETATM   34  C   UNL     1      -0.528  10.542  24.644  0.00  0.00    -0.061 A 
HETATM   35  C   UNL     1      -0.289   9.088  24.931  0.00  0.00     0.048 C 
HETATM   36  C   UNL     1      -1.837  11.025  24.539  0.00  0.00     0.007 A 
HETATM   37  C   UNL     1      -2.072  12.348  24.160  0.00  0.00     0.001 A 
HETATM   38  C   UNL     1      -1.005  13.189  23.845  0.00  0.00     0.007 A 
ENDBRANCH  31  32
ENDBRANCH   1  31
TORSDOF 7
ENDMDL
