REMARK  7 active torsions:
REMARK  status: ('A' for Active; 'I' for Inactive)
REMARK    1  A    between atoms: C_7  and  C_8 
REMARK    2  A    between atoms: C_8  and  C_9 
REMARK    3  A    between atoms: C_16  and  C_20 
REMARK    4  A    between atoms: C_17  and  O_19 
REMARK       I    between atoms: C_20  and  N_22 
REMARK    5  A    between atoms: N_22  and  C_24 
REMARK    6  A    between atoms: C_27  and  N_30 
REMARK    7  A    between atoms: C_35  and  O_36 
ROOT
HETATM    1  C   UNL     1      -4.729   6.327  -0.657  0.00  0.00     0.071 A 
HETATM    2  N   UNL     1      -5.807   5.624  -0.274  0.00  0.00    -0.178 NA
HETATM    3  N   UNL     1      -5.323   4.397  -0.019  0.00  0.00    -0.277 N 
HETATM    4  H   UNL     1      -5.975   3.671   0.255  0.00  0.00     0.189 HD
HETATM    5  C   UNL     1      -3.539   5.541  -0.588  0.00  0.00     0.020 A 
HETATM    6  C   UNL     1      -3.983   4.263  -0.264  0.00  0.00     0.065 A 
HETATM    7  C   UNL     1      -2.167   5.736  -0.853  0.00  0.00     0.035 C 
HETATM    8  C   UNL     1      -1.293   4.634  -0.805  0.00  0.00     0.066 C 
HETATM    9  C   UNL     1      -1.816   3.346  -0.620  0.00  0.00     0.083 C 
HETATM   10  C   UNL     1      -3.156   3.138  -0.283  0.00  0.00     0.069 C 
ENDROOT
BRANCH   8  11
HETATM   11  C   UNL     1       0.175   4.822  -1.005  0.00  0.00     0.260 C 
HETATM   12  O   UNL     1       0.715   4.011  -1.765  0.00  0.00    -0.267 OA
HETATM   13  N   UNL     1       0.859   5.906  -0.403  0.00  0.00    -0.318 N 
HETATM   14  C   UNL     1       2.188   6.227  -0.900  0.00  0.00     0.159 C 
BRANCH  13  15
HETATM   15  C   UNL     1       0.390   6.641   0.733  0.00  0.00     0.037 C 
HETATM   16  C   UNL     1      -0.352   6.015   1.729  0.00  0.00     0.032 C 
HETATM   17  C   UNL     1      -0.962   6.759   2.740  0.00  0.00     0.031 C 
HETATM   18  C   UNL     1      -0.877   8.150   2.819  0.00  0.00     0.032 C 
HETATM   19  C   UNL     1       0.004   8.745   1.902  0.00  0.00     0.031 C 
HETATM   20  C   UNL     1       0.636   8.010   0.882  0.00  0.00     0.032 C 
BRANCH  18  21
HETATM   21  N   UNL     1      -1.649   8.894   3.686  0.00  0.00    -0.351 N 
HETATM   22  C   UNL     1      -1.115  10.102   4.348  0.00  0.00     0.152 C 
HETATM   23  C   UNL     1      -2.136  11.244   4.223  0.00  0.00     0.187 C 
HETATM   24  O   UNL     1      -3.395  10.885   4.816  0.00  0.00    -0.385 OA
HETATM   25  C   UNL     1      -3.916   9.696   4.203  0.00  0.00     0.221 C 
HETATM   26  C   UNL     1      -2.945   8.491   4.273  0.00  0.00     0.244 C 
BRANCH  26  27
HETATM   27  O   UNL     1      -3.557   7.406   3.599  0.00  0.00    -0.374 OA
HETATM   28  H   UNL     1      -3.603   7.677   2.665  0.00  0.00     0.212 HD
ENDBRANCH  26  27
ENDBRANCH  18  21
ENDBRANCH  13  15
ENDBRANCH   8  11
BRANCH   9  29
HETATM   29  O   UNL     1      -1.069   2.210  -0.799  0.00  0.00    -0.360 OA
HETATM   30  H   UNL     1      -0.358   2.435  -1.439  0.00  0.00     0.217 HD
ENDBRANCH   9  29
BRANCH   1  31
HETATM   31  C   UNL     1      -4.898   7.638  -1.340  0.00  0.00     0.100 C 
BRANCH  31  32
HETATM   32  C   UNL     1      -4.920   8.778  -0.353  0.00  0.00    -0.052 A 
HETATM   33  C   UNL     1      -6.151   9.290   0.092  0.00  0.00     0.014 A 
HETATM   34  C   UNL     1      -6.225  10.540   0.721  0.00  0.00    -0.061 A 
HETATM   35  C   UNL     1      -7.552  11.180   1.007  0.00  0.00     0.048 C 
HETATM   36  C   UNL     1      -5.043  11.246   0.971  0.00  0.00     0.007 A 
HETATM   37  C   UNL     1      -3.809  10.708   0.602  0.00  0.00     0.001 A 
HETATM   38  C   UNL     1      -3.745   9.479  -0.053  0.00  0.00     0.007 A 
ENDBRANCH  31  32
ENDBRANCH   1  31
TORSDOF 7
