MODEL 1
REMARK VINA RESULT:    -8.297      0.000      0.000
REMARK INTER + INTRA:         -12.485
REMARK INTER:                 -10.208
REMARK INTRA:                  -2.277
REMARK UNBOUND:                -2.005
REMARK  5 active torsions:
REMARK  status: ('A' for Active; 'I' for Inactive)
REMARK    1  A    between atoms: C_6  and  C_7 
REMARK    2  A    between atoms: C_7  and  C_8 
REMARK    3  A    between atoms: C_15  and  C_19 
REMARK    4  A    between atoms: C_16  and  O_18 
REMARK    5  A    between atoms: N_23  and  C_24 
ROOT
HETATM    1  C   UNL     1      10.242  13.142  24.042  0.00  0.00     0.071 A 
HETATM    2  N   UNL     1      11.027  12.511  24.935  0.00  0.00    -0.178 NA
HETATM    3  N   UNL     1      10.706  11.219  24.799  0.00  0.00    -0.277 N 
HETATM    4  H   UNL     1      11.164  10.545  25.399  0.00  0.00     0.189 HD
HETATM    5  C   UNL     1       9.395  12.224  23.347  0.00  0.00     0.020 A 
HETATM    6  C   UNL     1       9.723  10.981  23.876  0.00  0.00     0.065 A 
HETATM    7  C   UNL     1       8.352  12.299  22.386  0.00  0.00     0.032 A 
HETATM    8  C   UNL     1       7.684  11.134  21.942  0.00  0.00     0.027 A 
HETATM    9  C   UNL     1       8.069   9.915  22.538  0.00  0.00     0.080 A 
HETATM   10  C   UNL     1       9.084   9.804  23.503  0.00  0.00     0.069 A 
ENDROOT
BRANCH   8  11
HETATM   11  C   UNL     1       6.522  11.214  21.010  0.00  0.00     0.073 C 
HETATM   12  C   UNL     1       6.541  10.934  19.642  0.00  0.00     0.053 C 
HETATM   13  C   UNL     1       5.218  10.885  19.219  0.00  0.00     0.141 C 
HETATM   14  N   UNL     1       4.380  11.134  20.207  0.00  0.00    -0.179 NA
HETATM   15  N   UNL     1       5.164  11.514  21.267  0.00  0.00    -0.234 N 
BRANCH  15  16
HETATM   16  C   UNL     1       4.483  12.137  22.365  0.00  0.00     0.059 A 
HETATM   17  C   UNL     1       3.467  13.076  22.070  0.00  0.00     0.031 A 
HETATM   18  C   UNL     1       2.761  13.728  23.084  0.00  0.00     0.002 A 
HETATM   19  C   UNL     1       3.058  13.447  24.411  0.00  0.00     0.000 A 
HETATM   20  C   UNL     1       4.077  12.550  24.718  0.00  0.00     0.002 A 
HETATM   21  C   UNL     1       4.807  11.913  23.701  0.00  0.00     0.031 A 
ENDBRANCH  15  16
ENDBRANCH   8  11
BRANCH   9  22
HETATM   22  O   UNL     1       7.429   8.734  22.260  0.00  0.00    -0.360 OA
HETATM   23  H   UNL     1       7.706   8.123  22.965  0.00  0.00     0.217 HD
ENDBRANCH   9  22
BRANCH   1  24
HETATM   24  C   UNL     1      10.203  14.634  24.009  0.00  0.00     0.100 C 
BRANCH  24  25
HETATM   25  C   UNL     1       8.775  15.128  24.090  0.00  0.00    -0.052 A 
HETATM   26  C   UNL     1       8.002  14.960  25.252  0.00  0.00     0.007 A 
HETATM   27  C   UNL     1       6.630  15.221  25.242  0.00  0.00     0.001 A 
HETATM   28  C   UNL     1       6.011  15.657  24.072  0.00  0.00     0.000 A 
HETATM   29  C   UNL     1       6.767  15.863  22.922  0.00  0.00     0.001 A 
HETATM   30  C   UNL     1       8.141  15.606  22.932  0.00  0.00     0.007 A 
ENDBRANCH  24  25
ENDBRANCH   1  24
TORSDOF 5
ENDMDL
MODEL 2
REMARK VINA RESULT:    -8.094      2.462      7.100
REMARK INTER + INTRA:         -12.229
REMARK INTER:                 -11.102
REMARK INTRA:                  -1.126
REMARK UNBOUND:                -2.005
REMARK  5 active torsions:
REMARK  status: ('A' for Active; 'I' for Inactive)
REMARK    1  A    between atoms: C_6  and  C_7 
REMARK    2  A    between atoms: C_7  and  C_8 
REMARK    3  A    between atoms: C_15  and  C_19 
REMARK    4  A    between atoms: C_16  and  O_18 
REMARK    5  A    between atoms: N_23  and  C_24 
ROOT
HETATM    1  C   UNL     1       5.357  11.334  21.087  0.00  0.00     0.071 A 
HETATM    2  N   UNL     1       4.108  11.098  21.530  0.00  0.00    -0.178 NA
HETATM    3  N   UNL     1       3.810  12.177  22.264  0.00  0.00    -0.277 N 
HETATM    4  H   UNL     1       2.910  12.210  22.725  0.00  0.00     0.189 HD
HETATM    5  C   UNL     1       5.860  12.580  21.575  0.00  0.00     0.020 A 
HETATM    6  C   UNL     1       4.823  13.095  22.345  0.00  0.00     0.065 A 
HETATM    7  C   UNL     1       7.081  13.302  21.511  0.00  0.00     0.032 A 
HETATM    8  C   UNL     1       7.233  14.539  22.181  0.00  0.00     0.027 A 
HETATM    9  C   UNL     1       6.138  14.983  22.950  0.00  0.00     0.080 A 
HETATM   10  C   UNL     1       4.921  14.289  23.050  0.00  0.00     0.069 A 
ENDROOT
BRANCH   8  11
HETATM   11  C   UNL     1       8.543  15.253  22.202  0.00  0.00     0.073 C 
HETATM   12  C   UNL     1       8.959  16.238  21.304  0.00  0.00     0.053 C 
HETATM   13  C   UNL     1      10.113  16.807  21.831  0.00  0.00     0.141 C 
HETATM   14  N   UNL     1      10.460  16.239  22.971  0.00  0.00    -0.179 NA
HETATM   15  N   UNL     1       9.614  15.170  23.121  0.00  0.00    -0.234 N 
BRANCH  15  16
HETATM   16  C   UNL     1       9.984  14.208  24.119  0.00  0.00     0.059 A 
HETATM   17  C   UNL     1      10.489  14.687  25.350  0.00  0.00     0.031 A 
HETATM   18  C   UNL     1      10.874  13.813  26.369  0.00  0.00     0.002 A 
HETATM   19  C   UNL     1      10.756  12.444  26.174  0.00  0.00     0.000 A 
HETATM   20  C   UNL     1      10.291  11.954  24.956  0.00  0.00     0.002 A 
HETATM   21  C   UNL     1       9.928  12.829  23.920  0.00  0.00     0.031 A 
ENDBRANCH  15  16
ENDBRANCH   8  11
BRANCH   9  22
HETATM   22  O   UNL     1       6.202  16.117  23.720  0.00  0.00    -0.360 OA
HETATM   23  H   UNL     1       5.697  16.788  23.227  0.00  0.00     0.217 HD
ENDBRANCH   9  22
BRANCH   1  24
HETATM   24  C   UNL     1       6.100  10.269  20.351  0.00  0.00     0.100 C 
BRANCH  24  25
HETATM   25  C   UNL     1       5.553  10.113  18.949  0.00  0.00    -0.052 A 
HETATM   26  C   UNL     1       4.723  11.088  18.370  0.00  0.00     0.007 A 
HETATM   27  C   UNL     1       4.053  10.835  17.170  0.00  0.00     0.001 A 
HETATM   28  C   UNL     1       4.205   9.606  16.531  0.00  0.00     0.000 A 
HETATM   29  C   UNL     1       5.050   8.643  17.073  0.00  0.00     0.001 A 
HETATM   30  C   UNL     1       5.725   8.895  18.271  0.00  0.00     0.007 A 
ENDBRANCH  24  25
ENDBRANCH   1  24
TORSDOF 5
ENDMDL
MODEL 3
REMARK VINA RESULT:    -8.068      2.222      3.212
REMARK INTER + INTRA:         -12.196
REMARK INTER:                 -10.351
REMARK INTRA:                  -1.845
REMARK UNBOUND:                -2.005
REMARK  5 active torsions:
REMARK  status: ('A' for Active; 'I' for Inactive)
REMARK    1  A    between atoms: C_6  and  C_7 
REMARK    2  A    between atoms: C_7  and  C_8 
REMARK    3  A    between atoms: C_15  and  C_19 
REMARK    4  A    between atoms: C_16  and  O_18 
REMARK    5  A    between atoms: N_23  and  C_24 
ROOT
HETATM    1  C   UNL     1       8.791  13.087  21.495  0.00  0.00     0.071 A 
HETATM    2  N   UNL     1       9.507  13.060  20.356  0.00  0.00    -0.178 NA
HETATM    3  N   UNL     1       8.768  12.320  19.521  0.00  0.00    -0.277 N 
HETATM    4  H   UNL     1       9.128  12.141  18.592  0.00  0.00     0.189 HD
HETATM    5  C   UNL     1       7.586  12.326  21.376  0.00  0.00     0.020 A 
HETATM    6  C   UNL     1       7.613  11.836  20.076  0.00  0.00     0.065 A 
HETATM    7  C   UNL     1       6.514  11.943  22.224  0.00  0.00     0.032 A 
HETATM    8  C   UNL     1       5.471  11.112  21.751  0.00  0.00     0.027 A 
HETATM    9  C   UNL     1       5.581  10.648  20.425  0.00  0.00     0.080 A 
HETATM   10  C   UNL     1       6.635  10.993  19.562  0.00  0.00     0.069 A 
ENDROOT
BRANCH   8  11
HETATM   11  C   UNL     1       4.395  10.623  22.662  0.00  0.00     0.073 C 
HETATM   12  C   UNL     1       4.261   9.324  23.157  0.00  0.00     0.053 C 
HETATM   13  C   UNL     1       3.293   9.367  24.153  0.00  0.00     0.141 C 
HETATM   14  N   UNL     1       2.798  10.582  24.300  0.00  0.00    -0.179 NA
HETATM   15  N   UNL     1       3.331  11.322  23.276  0.00  0.00    -0.234 N 
BRANCH  15  16
HETATM   16  C   UNL     1       2.711  12.592  23.026  0.00  0.00     0.059 A 
HETATM   17  C   UNL     1       3.244  13.731  23.674  0.00  0.00     0.031 A 
HETATM   18  C   UNL     1       2.694  15.000  23.483  0.00  0.00     0.002 A 
HETATM   19  C   UNL     1       1.603  15.151  22.637  0.00  0.00     0.000 A 
HETATM   20  C   UNL     1       1.046  14.036  22.018  0.00  0.00     0.002 A 
HETATM   21  C   UNL     1       1.581  12.754  22.227  0.00  0.00     0.031 A 
ENDBRANCH  15  16
ENDBRANCH   8  11
BRANCH   9  22
HETATM   22  O   UNL     1       4.683   9.761  19.886  0.00  0.00    -0.360 OA
HETATM   23  H   UNL     1       3.806  10.132  20.089  0.00  0.00     0.217 HD
ENDBRANCH   9  22
BRANCH   1  24
HETATM   24  C   UNL     1       9.373  13.698  22.727  0.00  0.00     0.100 C 
BRANCH  24  25
HETATM   25  C   UNL     1       8.330  14.513  23.458  0.00  0.00    -0.052 A 
HETATM   26  C   UNL     1       8.078  14.330  24.829  0.00  0.00     0.007 A 
HETATM   27  C   UNL     1       6.973  14.927  25.440  0.00  0.00     0.001 A 
HETATM   28  C   UNL     1       6.106  15.720  24.691  0.00  0.00     0.000 A 
HETATM   29  C   UNL     1       6.359  15.941  23.340  0.00  0.00     0.001 A 
HETATM   30  C   UNL     1       7.467  15.347  22.729  0.00  0.00     0.007 A 
ENDBRANCH  24  25
ENDBRANCH   1  24
TORSDOF 5
ENDMDL
MODEL 4
REMARK VINA RESULT:    -7.957      1.707      3.157
REMARK INTER + INTRA:         -12.056
REMARK INTER:                 -10.547
REMARK INTRA:                  -1.509
REMARK UNBOUND:                -2.005
REMARK  5 active torsions:
REMARK  status: ('A' for Active; 'I' for Inactive)
REMARK    1  A    between atoms: C_6  and  C_7 
REMARK    2  A    between atoms: C_7  and  C_8 
REMARK    3  A    between atoms: C_15  and  C_19 
REMARK    4  A    between atoms: C_16  and  O_18 
REMARK    5  A    between atoms: N_23  and  C_24 
ROOT
HETATM    1  C   UNL     1       9.764  13.169  25.107  0.00  0.00     0.071 A 
HETATM    2  N   UNL     1      11.051  12.782  25.173  0.00  0.00    -0.178 NA
HETATM    3  N   UNL     1      11.044  11.530  24.697  0.00  0.00    -0.277 N 
HETATM    4  H   UNL     1      11.917  11.021  24.675  0.00  0.00     0.189 HD
HETATM    5  C   UNL     1       8.928  12.126  24.599  0.00  0.00     0.020 A 
HETATM    6  C   UNL     1       9.801  11.072  24.351  0.00  0.00     0.065 A 
HETATM    7  C   UNL     1       7.540  11.924  24.378  0.00  0.00     0.032 A 
HETATM    8  C   UNL     1       7.052  10.693  23.880  0.00  0.00     0.027 A 
HETATM    9  C   UNL     1       8.001   9.673  23.668  0.00  0.00     0.080 A 
HETATM   10  C   UNL     1       9.380   9.830  23.890  0.00  0.00     0.069 A 
ENDROOT
BRANCH   8  11
HETATM   11  C   UNL     1       5.588  10.438  23.741  0.00  0.00     0.073 C 
HETATM   12  C   UNL     1       4.689  10.203  24.784  0.00  0.00     0.053 C 
HETATM   13  C   UNL     1       3.412  10.272  24.241  0.00  0.00     0.141 C 
HETATM   14  N   UNL     1       3.445  10.508  22.943  0.00  0.00    -0.179 NA
HETATM   15  N   UNL     1       4.768  10.433  22.590  0.00  0.00    -0.234 N 
BRANCH  15  16
HETATM   16  C   UNL     1       5.042  10.341  21.184  0.00  0.00     0.059 A 
HETATM   17  C   UNL     1       5.464   9.093  20.670  0.00  0.00     0.031 A 
HETATM   18  C   UNL     1       5.753   8.925  19.314  0.00  0.00     0.002 A 
HETATM   19  C   UNL     1       5.621  10.003  18.449  0.00  0.00     0.000 A 
HETATM   20  C   UNL     1       5.237  11.247  18.945  0.00  0.00     0.002 A 
HETATM   21  C   UNL     1       4.971  11.426  20.312  0.00  0.00     0.031 A 
ENDBRANCH  15  16
ENDBRANCH   8  11
BRANCH   9  22
HETATM   22  O   UNL     1       7.637   8.408  23.280  0.00  0.00    -0.360 OA
HETATM   23  H   UNL     1       7.741   8.400  22.312  0.00  0.00     0.217 HD
ENDBRANCH   9  22
BRANCH   1  24
HETATM   24  C   UNL     1       9.346  14.472  25.703  0.00  0.00     0.100 C 
BRANCH  24  25
HETATM   25  C   UNL     1       8.197  15.068  24.920  0.00  0.00    -0.052 A 
HETATM   26  C   UNL     1       6.911  15.189  25.475  0.00  0.00     0.007 A 
HETATM   27  C   UNL     1       5.818  15.535  24.677  0.00  0.00     0.001 A 
HETATM   28  C   UNL     1       5.994  15.770  23.315  0.00  0.00     0.000 A 
HETATM   29  C   UNL     1       7.266  15.690  22.756  0.00  0.00     0.001 A 
HETATM   30  C   UNL     1       8.361  15.347  23.553  0.00  0.00     0.007 A 
ENDBRANCH  24  25
ENDBRANCH   1  24
TORSDOF 5
ENDMDL
MODEL 5
REMARK VINA RESULT:    -7.921      2.151      5.151
REMARK INTER + INTRA:         -12.011
REMARK INTER:                  -9.741
REMARK INTRA:                  -2.269
REMARK UNBOUND:                -2.005
REMARK  5 active torsions:
REMARK  status: ('A' for Active; 'I' for Inactive)
REMARK    1  A    between atoms: C_6  and  C_7 
REMARK    2  A    between atoms: C_7  and  C_8 
REMARK    3  A    between atoms: C_15  and  C_19 
REMARK    4  A    between atoms: C_16  and  O_18 
REMARK    5  A    between atoms: N_23  and  C_24 
ROOT
HETATM    1  C   UNL     1       4.536  14.766  24.145  0.00  0.00     0.071 A 
HETATM    2  N   UNL     1       3.406  15.308  23.657  0.00  0.00    -0.178 NA
HETATM    3  N   UNL     1       2.827  14.309  22.981  0.00  0.00    -0.277 N 
HETATM    4  H   UNL     1       1.957  14.496  22.499  0.00  0.00     0.189 HD
HETATM    5  C   UNL     1       4.678  13.400  23.746  0.00  0.00     0.020 A 
HETATM    6  C   UNL     1       3.545  13.143  22.981  0.00  0.00     0.065 A 
HETATM    7  C   UNL     1       5.650  12.374  23.885  0.00  0.00     0.032 A 
HETATM    8  C   UNL     1       5.459  11.103  23.293  0.00  0.00     0.027 A 
HETATM    9  C   UNL     1       4.290  10.930  22.525  0.00  0.00     0.080 A 
HETATM   10  C   UNL     1       3.315  11.926  22.351  0.00  0.00     0.069 A 
ENDROOT
BRANCH   8  11
HETATM   11  C   UNL     1       6.519  10.054  23.350  0.00  0.00     0.073 C 
HETATM   12  C   UNL     1       6.450   8.849  24.052  0.00  0.00     0.053 C 
HETATM   13  C   UNL     1       7.523   8.073  23.631  0.00  0.00     0.141 C 
HETATM   14  N   UNL     1       8.265   8.706  22.742  0.00  0.00    -0.179 NA
HETATM   15  N   UNL     1       7.769   9.984  22.693  0.00  0.00    -0.234 N 
BRANCH  15  16
HETATM   16  C   UNL     1       8.595  10.957  22.037  0.00  0.00     0.059 A 
HETATM   17  C   UNL     1       9.940  11.077  22.455  0.00  0.00     0.031 A 
HETATM   18  C   UNL     1      10.806  12.002  21.867  0.00  0.00     0.002 A 
HETATM   19  C   UNL     1      10.338  12.822  20.849  0.00  0.00     0.000 A 
HETATM   20  C   UNL     1       9.007  12.740  20.448  0.00  0.00     0.002 A 
HETATM   21  C   UNL     1       8.128  11.828  21.055  0.00  0.00     0.031 A 
ENDBRANCH  15  16
ENDBRANCH   8  11
BRANCH   9  22
HETATM   22  O   UNL     1       4.043   9.775  21.825  0.00  0.00    -0.360 OA
HETATM   23  H   UNL     1       4.757   9.165  22.082  0.00  0.00     0.217 HD
ENDBRANCH   9  22
BRANCH   1  24
HETATM   24  C   UNL     1       5.540  15.629  24.835  0.00  0.00     0.100 C 
BRANCH  24  25
HETATM   25  C   UNL     1       6.921  15.399  24.261  0.00  0.00    -0.052 A 
HETATM   26  C   UNL     1       8.001  15.015  25.073  0.00  0.00     0.007 A 
HETATM   27  C   UNL     1       9.307  15.018  24.576  0.00  0.00     0.001 A 
HETATM   28  C   UNL     1       9.550  15.401  23.258  0.00  0.00     0.000 A 
HETATM   29  C   UNL     1       8.488  15.750  22.430  0.00  0.00     0.001 A 
HETATM   30  C   UNL     1       7.181  15.744  22.925  0.00  0.00     0.007 A 
ENDBRANCH  24  25
ENDBRANCH   1  24
TORSDOF 5
ENDMDL
MODEL 6
REMARK VINA RESULT:    -7.846      1.883      5.123
REMARK INTER + INTRA:         -11.915
REMARK INTER:                 -10.462
REMARK INTRA:                  -1.453
REMARK UNBOUND:                -2.005
REMARK  5 active torsions:
REMARK  status: ('A' for Active; 'I' for Inactive)
REMARK    1  A    between atoms: C_6  and  C_7 
REMARK    2  A    between atoms: C_7  and  C_8 
REMARK    3  A    between atoms: C_15  and  C_19 
REMARK    4  A    between atoms: C_16  and  O_18 
REMARK    5  A    between atoms: N_23  and  C_24 
ROOT
HETATM    1  C   UNL     1       3.984  11.663  22.757  0.00  0.00     0.071 A 
HETATM    2  N   UNL     1       2.876  10.979  23.094  0.00  0.00    -0.178 NA
HETATM    3  N   UNL     1       3.340   9.843  23.628  0.00  0.00    -0.277 N 
HETATM    4  H   UNL     1       2.671   9.150  23.938  0.00  0.00     0.189 HD
HETATM    5  C   UNL     1       5.170  10.927  23.068  0.00  0.00     0.020 A 
HETATM    6  C   UNL     1       4.705   9.743  23.628  0.00  0.00     0.065 A 
HETATM    7  C   UNL     1       6.569  11.091  22.889  0.00  0.00     0.032 A 
HETATM    8  C   UNL     1       7.480  10.091  23.303  0.00  0.00     0.027 A 
HETATM    9  C   UNL     1       6.925   8.915  23.849  0.00  0.00     0.080 A 
HETATM   10  C   UNL     1       5.547   8.711  24.027  0.00  0.00     0.069 A 
ENDROOT
BRANCH   8  11
HETATM   11  C   UNL     1       8.941  10.210  23.027  0.00  0.00     0.073 C 
HETATM   12  C   UNL     1       9.888   9.190  23.144  0.00  0.00     0.053 C 
HETATM   13  C   UNL     1      11.058   9.654  22.554  0.00  0.00     0.141 C 
HETATM   14  N   UNL     1      10.922  10.886  22.103  0.00  0.00    -0.179 NA
HETATM   15  N   UNL     1       9.692  11.305  22.543  0.00  0.00    -0.234 N 
BRANCH  15  16
HETATM   16  C   UNL     1       9.436  12.714  22.454  0.00  0.00     0.059 A 
HETATM   17  C   UNL     1       9.098  13.249  21.189  0.00  0.00     0.031 A 
HETATM   18  C   UNL     1       8.836  14.611  21.020  0.00  0.00     0.002 A 
HETATM   19  C   UNL     1       8.907  15.459  22.117  0.00  0.00     0.000 A 
HETATM   20  C   UNL     1       9.270  14.955  23.363  0.00  0.00     0.002 A 
HETATM   21  C   UNL     1       9.559  13.590  23.530  0.00  0.00     0.031 A 
ENDBRANCH  15  16
ENDBRANCH   8  11
BRANCH   9  22
HETATM   22  O   UNL     1       7.701   7.838  24.198  0.00  0.00    -0.360 OA
HETATM   23  H   UNL     1       7.593   7.201  23.469  0.00  0.00     0.217 HD
ENDBRANCH   9  22
BRANCH   1  24
HETATM   24  C   UNL     1       3.868  12.933  21.981  0.00  0.00     0.100 C 
BRANCH  24  25
HETATM   25  C   UNL     1       4.146  14.125  22.871  0.00  0.00    -0.052 A 
HETATM   26  C   UNL     1       5.400  14.759  22.885  0.00  0.00     0.007 A 
HETATM   27  C   UNL     1       5.710  15.711  23.859  0.00  0.00     0.001 A 
HETATM   28  C   UNL     1       4.769  16.047  24.830  0.00  0.00     0.000 A 
HETATM   29  C   UNL     1       3.509  15.455  24.810  0.00  0.00     0.001 A 
HETATM   30  C   UNL     1       3.197  14.505  23.834  0.00  0.00     0.007 A 
ENDBRANCH  24  25
ENDBRANCH   1  24
TORSDOF 5
ENDMDL
MODEL 7
REMARK VINA RESULT:    -7.828      2.384      6.642
REMARK INTER + INTRA:         -11.893
REMARK INTER:                 -10.045
REMARK INTRA:                  -1.848
REMARK UNBOUND:                -2.005
REMARK  5 active torsions:
REMARK  status: ('A' for Active; 'I' for Inactive)
REMARK    1  A    between atoms: C_6  and  C_7 
REMARK    2  A    between atoms: C_7  and  C_8 
REMARK    3  A    between atoms: C_15  and  C_19 
REMARK    4  A    between atoms: C_16  and  O_18 
REMARK    5  A    between atoms: N_23  and  C_24 
ROOT
HETATM    1  C   UNL     1       5.597  10.931  21.572  0.00  0.00     0.071 A 
HETATM    2  N   UNL     1       4.324  10.723  21.952  0.00  0.00    -0.178 NA
HETATM    3  N   UNL     1       3.934  11.900  22.457  0.00  0.00    -0.277 N 
HETATM    4  H   UNL     1       2.998  11.974  22.834  0.00  0.00     0.189 HD
HETATM    5  C   UNL     1       6.022  12.264  21.868  0.00  0.00     0.020 A 
HETATM    6  C   UNL     1       4.910  12.860  22.451  0.00  0.00     0.065 A 
HETATM    7  C   UNL     1       7.223  13.015  21.771  0.00  0.00     0.032 A 
HETATM    8  C   UNL     1       7.284  14.355  22.221  0.00  0.00     0.027 A 
HETATM    9  C   UNL     1       6.116  14.880  22.811  0.00  0.00     0.080 A 
HETATM   10  C   UNL     1       4.915  14.162  22.939  0.00  0.00     0.069 A 
ENDROOT
BRANCH   8  11
HETATM   11  C   UNL     1       8.566  15.118  22.215  0.00  0.00     0.073 C 
HETATM   12  C   UNL     1       8.957  16.066  21.268  0.00  0.00     0.053 C 
HETATM   13  C   UNL     1      10.083  16.705  21.774  0.00  0.00     0.141 C 
HETATM   14  N   UNL     1      10.436  16.215  22.948  0.00  0.00    -0.179 NA
HETATM   15  N   UNL     1       9.628  15.125  23.148  0.00  0.00    -0.234 N 
BRANCH  15  16
HETATM   16  C   UNL     1      10.021  14.234  24.202  0.00  0.00     0.059 A 
HETATM   17  C   UNL     1      10.507  14.799  25.404  0.00  0.00     0.031 A 
HETATM   18  C   UNL     1      10.911  13.998  26.474  0.00  0.00     0.002 A 
HETATM   19  C   UNL     1      10.832  12.616  26.360  0.00  0.00     0.000 A 
HETATM   20  C   UNL     1      10.386  12.043  25.172  0.00  0.00     0.002 A 
HETATM   21  C   UNL     1      10.004  12.845  24.085  0.00  0.00     0.031 A 
ENDBRANCH  15  16
ENDBRANCH   8  11
BRANCH   9  22
HETATM   22  O   UNL     1       6.082  16.133  23.370  0.00  0.00    -0.360 OA
HETATM   23  H   UNL     1       6.800  16.136  24.028  0.00  0.00     0.217 HD
ENDBRANCH   9  22
BRANCH   1  24
HETATM   24  C   UNL     1       6.430   9.786  21.097  0.00  0.00     0.100 C 
BRANCH  24  25
HETATM   25  C   UNL     1       7.195   9.173  22.249  0.00  0.00    -0.052 A 
HETATM   26  C   UNL     1       8.434   9.688  22.667  0.00  0.00     0.007 A 
HETATM   27  C   UNL     1       9.228   8.989  23.580  0.00  0.00     0.001 A 
HETATM   28  C   UNL     1       8.793   7.767  24.090  0.00  0.00     0.000 A 
HETATM   29  C   UNL     1       7.552   7.261  23.715  0.00  0.00     0.001 A 
HETATM   30  C   UNL     1       6.756   7.961  22.805  0.00  0.00     0.007 A 
ENDBRANCH  24  25
ENDBRANCH   1  24
TORSDOF 5
ENDMDL
MODEL 8
REMARK VINA RESULT:    -7.770      2.199      4.838
REMARK INTER + INTRA:         -11.820
REMARK INTER:                  -9.815
REMARK INTRA:                  -2.005
REMARK UNBOUND:                -2.005
REMARK  5 active torsions:
REMARK  status: ('A' for Active; 'I' for Inactive)
REMARK    1  A    between atoms: C_6  and  C_7 
REMARK    2  A    between atoms: C_7  and  C_8 
REMARK    3  A    between atoms: C_15  and  C_19 
REMARK    4  A    between atoms: C_16  and  O_18 
REMARK    5  A    between atoms: N_23  and  C_24 
ROOT
HETATM    1  C   UNL     1       4.443  14.784  24.170  0.00  0.00     0.071 A 
HETATM    2  N   UNL     1       3.533  14.741  25.160  0.00  0.00    -0.178 NA
HETATM    3  N   UNL     1       3.037  13.499  25.097  0.00  0.00    -0.277 N 
HETATM    4  H   UNL     1       2.305  13.241  25.746  0.00  0.00     0.189 HD
HETATM    5  C   UNL     1       4.501  13.546  23.456  0.00  0.00     0.020 A 
HETATM    6  C   UNL     1       3.564  12.737  24.088  0.00  0.00     0.065 A 
HETATM    7  C   UNL     1       5.184  13.035  22.321  0.00  0.00     0.032 A 
HETATM    8  C   UNL     1       4.949  11.718  21.860  0.00  0.00     0.027 A 
HETATM    9  C   UNL     1       3.973  10.970  22.549  0.00  0.00     0.080 A 
HETATM   10  C   UNL     1       3.266  11.447  23.665  0.00  0.00     0.069 A 
ENDROOT
BRANCH   8  11
HETATM   11  C   UNL     1       5.586  11.209  20.610  0.00  0.00     0.073 C 
HETATM   12  C   UNL     1       4.940  10.537  19.571  0.00  0.00     0.053 C 
HETATM   13  C   UNL     1       5.836  10.473  18.510  0.00  0.00     0.141 C 
HETATM   14  N   UNL     1       6.993  11.031  18.815  0.00  0.00    -0.179 NA
HETATM   15  N   UNL     1       6.918  11.324  20.152  0.00  0.00    -0.234 N 
BRANCH  15  16
HETATM   16  C   UNL     1       8.158  11.650  20.797  0.00  0.00     0.059 A 
HETATM   17  C   UNL     1       8.367  11.175  22.113  0.00  0.00     0.031 A 
HETATM   18  C   UNL     1       9.546  11.452  22.808  0.00  0.00     0.002 A 
HETATM   19  C   UNL     1      10.538  12.207  22.196  0.00  0.00     0.000 A 
HETATM   20  C   UNL     1      10.334  12.710  20.914  0.00  0.00     0.002 A 
HETATM   21  C   UNL     1       9.139  12.455  20.222  0.00  0.00     0.031 A 
ENDBRANCH  15  16
ENDBRANCH   8  11
BRANCH   9  22
HETATM   22  O   UNL     1       3.590   9.718  22.136  0.00  0.00    -0.360 OA
HETATM   23  H   UNL     1       4.407   9.188  22.142  0.00  0.00     0.217 HD
ENDBRANCH   9  22
BRANCH   1  24
HETATM   24  C   UNL     1       5.105  16.076  23.823  0.00  0.00     0.100 C 
BRANCH  24  25
HETATM   25  C   UNL     1       6.607  15.901  23.759  0.00  0.00    -0.052 A 
HETATM   26  C   UNL     1       7.320  16.086  22.562  0.00  0.00     0.007 A 
HETATM   27  C   UNL     1       8.663  15.713  22.465  0.00  0.00     0.001 A 
HETATM   28  C   UNL     1       9.313  15.153  23.563  0.00  0.00     0.000 A 
HETATM   29  C   UNL     1       8.632  14.996  24.766  0.00  0.00     0.001 A 
HETATM   30  C   UNL     1       7.290  15.372  24.866  0.00  0.00     0.007 A 
ENDBRANCH  24  25
ENDBRANCH   1  24
TORSDOF 5
ENDMDL
MODEL 9
REMARK VINA RESULT:    -7.673      1.884      3.447
REMARK INTER + INTRA:         -11.697
REMARK INTER:                  -9.691
REMARK INTRA:                  -2.007
REMARK UNBOUND:                -2.005
REMARK  5 active torsions:
REMARK  status: ('A' for Active; 'I' for Inactive)
REMARK    1  A    between atoms: C_6  and  C_7 
REMARK    2  A    between atoms: C_7  and  C_8 
REMARK    3  A    between atoms: C_15  and  C_19 
REMARK    4  A    between atoms: C_16  and  O_18 
REMARK    5  A    between atoms: N_23  and  C_24 
ROOT
HETATM    1  C   UNL     1       9.011  14.498  24.715  0.00  0.00     0.071 A 
HETATM    2  N   UNL     1      10.051  15.344  24.613  0.00  0.00    -0.178 NA
HETATM    3  N   UNL     1      10.890  14.735  23.766  0.00  0.00    -0.277 N 
HETATM    4  H   UNL     1      11.770  15.186  23.554  0.00  0.00     0.189 HD
HETATM    5  C   UNL     1       9.214  13.320  23.930  0.00  0.00     0.020 A 
HETATM    6  C   UNL     1      10.454  13.511  23.333  0.00  0.00     0.065 A 
HETATM    7  C   UNL     1       8.531  12.096  23.703  0.00  0.00     0.032 A 
HETATM    8  C   UNL     1       9.079  11.102  22.857  0.00  0.00     0.027 A 
HETATM    9  C   UNL     1      10.346  11.369  22.301  0.00  0.00     0.080 A 
HETATM   10  C   UNL     1      11.058  12.562  22.517  0.00  0.00     0.069 A 
ENDROOT
BRANCH   8  11
HETATM   11  C   UNL     1       8.418   9.774  22.692  0.00  0.00     0.073 C 
HETATM   12  C   UNL     1       8.873   8.558  23.206  0.00  0.00     0.053 C 
HETATM   13  C   UNL     1       7.845   7.638  23.041  0.00  0.00     0.141 C 
HETATM   14  N   UNL     1       6.798   8.177  22.446  0.00  0.00    -0.179 NA
HETATM   15  N   UNL     1       7.199   9.432  22.065  0.00  0.00    -0.234 N 
BRANCH  15  16
HETATM   16  C   UNL     1       6.350  10.108  21.125  0.00  0.00     0.059 A 
HETATM   17  C   UNL     1       5.610  11.224  21.581  0.00  0.00     0.031 A 
HETATM   18  C   UNL     1       4.761  11.932  20.727  0.00  0.00     0.002 A 
HETATM   19  C   UNL     1       4.640  11.535  19.402  0.00  0.00     0.000 A 
HETATM   20  C   UNL     1       5.336  10.419  18.946  0.00  0.00     0.002 A 
HETATM   21  C   UNL     1       6.171   9.690  19.808  0.00  0.00     0.031 A 
ENDBRANCH  15  16
ENDBRANCH   8  11
BRANCH   9  22
HETATM   22  O   UNL     1      11.020  10.444  21.544  0.00  0.00    -0.360 OA
HETATM   23  H   UNL     1      11.945  10.495  21.844  0.00  0.00     0.217 HD
ENDBRANCH   9  22
BRANCH   1  24
HETATM   24  C   UNL     1       7.927  14.765  25.707  0.00  0.00     0.100 C 
BRANCH  24  25
HETATM   25  C   UNL     1       6.577  14.783  25.024  0.00  0.00    -0.052 A 
HETATM   26  C   UNL     1       5.683  13.704  25.132  0.00  0.00     0.007 A 
HETATM   27  C   UNL     1       4.542  13.637  24.328  0.00  0.00     0.001 A 
HETATM   28  C   UNL     1       4.277  14.650  23.408  0.00  0.00     0.000 A 
HETATM   29  C   UNL     1       5.132  15.743  23.314  0.00  0.00     0.001 A 
HETATM   30  C   UNL     1       6.272  15.813  24.120  0.00  0.00     0.007 A 
ENDBRANCH  24  25
ENDBRANCH   1  24
TORSDOF 5
ENDMDL
