MODEL 1
REMARK VINA RESULT:    -7.504      0.000      0.000
REMARK INTER + INTRA:         -10.452
REMARK INTER:                  -9.017
REMARK INTRA:                  -1.435
REMARK UNBOUND:                -1.194
REMARK  5 active torsions:
REMARK  status: ('A' for Active; 'I' for Inactive)
REMARK    1  A    between atoms: C_2  and  C_3 
REMARK    2  A    between atoms: C_8  and  N_9 
REMARK    3  A    between atoms: C_15  and  C_16 
REMARK    4  A    between atoms: C_19  and  O_20 
REMARK    5  A    between atoms: C_22  and  O_23 
ROOT
HETATM    1  N   UNL     1       5.523   6.548  20.003  0.00  0.00    -0.244 N 
HETATM    2  C   UNL     1       6.718   7.109  20.421  0.00  0.00     0.349 A 
HETATM    3  O   UNL     1       7.428   6.817  21.373  0.00  0.00    -0.245 OA
HETATM    4  N   UNL     1       6.998   8.110  19.507  0.00  0.00    -0.226 N 
HETATM    5  H   UNL     1       7.800   8.719  19.515  0.00  0.00     0.194 HD
HETATM    6  N   UNL     1       5.995   8.226  18.600  0.00  0.00    -0.151 NA
HETATM    7  C   UNL     1       5.126   7.296  18.916  0.00  0.00     0.171 A 
ENDROOT
BRANCH   7   8
HETATM    8  C   UNL     1       3.808   7.229  18.206  0.00  0.00     0.045 A 
HETATM    9  C   UNL     1       3.427   6.106  17.457  0.00  0.00     0.021 A 
HETATM   10  C   UNL     1       2.114   5.968  16.978  0.00  0.00     0.037 A 
HETATM   11  C   UNL     1       1.166   6.941  17.270  0.00  0.00     0.068 A 
HETATM   12  C   UNL     1       1.513   8.069  17.996  0.00  0.00     0.074 A 
HETATM   13  C   UNL     1       2.828   8.216  18.448  0.00  0.00     0.082 A 
BRANCH  11  14
HETATM   14  O   UNL     1      -0.133   6.824  16.871  0.00  0.00    -0.361 OA
HETATM   15  H   UNL     1      -0.447   7.686  16.552  0.00  0.00     0.217 HD
ENDBRANCH  11  14
BRANCH  13  16
HETATM   16  O   UNL     1       3.133   9.367  19.126  0.00  0.00    -0.360 OA
HETATM   17  H   UNL     1       3.820   9.851  18.638  0.00  0.00     0.217 HD
ENDBRANCH  13  16
ENDBRANCH   7   8
BRANCH   1  18
HETATM   18  C   UNL     1       4.937   5.463  20.676  0.00  0.00     0.052 A 
HETATM   19  C   UNL     1       4.117   5.611  21.815  0.00  0.00    -0.031 A 
HETATM   20  C   UNL     1       3.650   4.450  22.467  0.00  0.00     0.009 A 
HETATM   21  C   UNL     1       3.925   3.176  21.969  0.00  0.00     0.001 A 
HETATM   22  C   UNL     1       4.639   3.038  20.787  0.00  0.00     0.002 A 
HETATM   23  C   UNL     1       5.133   4.172  20.143  0.00  0.00     0.031 A 
BRANCH  19  24
HETATM   24  C   UNL     1       3.592   6.951  22.283  0.00  0.00     0.036 C 
HETATM   25  C   UNL     1       4.466   7.583  23.365  0.00  0.00     0.010 C 
ENDBRANCH  19  24
ENDBRANCH   1  18
TORSDOF 5
ENDMDL
MODEL 2
REMARK VINA RESULT:    -7.383      7.043      8.573
REMARK INTER + INTRA:         -10.304
REMARK INTER:                  -9.241
REMARK INTRA:                  -1.063
REMARK UNBOUND:                -1.194
REMARK  5 active torsions:
REMARK  status: ('A' for Active; 'I' for Inactive)
REMARK    1  A    between atoms: C_2  and  C_3 
REMARK    2  A    between atoms: C_8  and  N_9 
REMARK    3  A    between atoms: C_15  and  C_16 
REMARK    4  A    between atoms: C_19  and  O_20 
REMARK    5  A    between atoms: C_22  and  O_23 
ROOT
HETATM    1  N   UNL     1       0.084   9.981  26.505  0.00  0.00    -0.244 N 
HETATM    2  C   UNL     1      -0.112   9.584  27.817  0.00  0.00     0.349 A 
HETATM    3  O   UNL     1       0.387   8.655  28.436  0.00  0.00    -0.245 OA
HETATM    4  N   UNL     1      -1.015  10.489  28.347  0.00  0.00    -0.226 N 
HETATM    5  H   UNL     1      -1.376  10.492  29.287  0.00  0.00     0.194 HD
HETATM    6  N   UNL     1      -1.425  11.369  27.399  0.00  0.00    -0.151 NA
HETATM    7  C   UNL     1      -0.768  11.046  26.312  0.00  0.00     0.171 A 
ENDROOT
BRANCH   7   8
HETATM    8  C   UNL     1      -1.086  11.723  25.013  0.00  0.00     0.045 A 
HETATM    9  C   UNL     1      -0.110  12.411  24.278  0.00  0.00     0.021 A 
HETATM   10  C   UNL     1      -0.367  12.854  22.970  0.00  0.00     0.037 A 
HETATM   11  C   UNL     1      -1.597  12.589  22.380  0.00  0.00     0.068 A 
HETATM   12  C   UNL     1      -2.589  11.925  23.084  0.00  0.00     0.074 A 
HETATM   13  C   UNL     1      -2.338  11.508  24.395  0.00  0.00     0.082 A 
BRANCH  11  14
HETATM   14  O   UNL     1      -1.874  12.954  21.096  0.00  0.00    -0.361 OA
HETATM   15  H   UNL     1      -2.785  13.286  21.049  0.00  0.00     0.217 HD
ENDBRANCH  11  14
BRANCH  13  16
HETATM   16  O   UNL     1      -3.362  10.892  25.065  0.00  0.00    -0.360 OA
HETATM   17  H   UNL     1      -3.311  11.124  26.007  0.00  0.00     0.217 HD
ENDBRANCH  13  16
ENDBRANCH   7   8
BRANCH   1  18
HETATM   18  C   UNL     1       0.977   9.309  25.652  0.00  0.00     0.052 A 
HETATM   19  C   UNL     1       0.734   8.017  25.141  0.00  0.00    -0.031 A 
HETATM   20  C   UNL     1       1.736   7.398  24.363  0.00  0.00     0.009 A 
HETATM   21  C   UNL     1       2.920   8.064  24.039  0.00  0.00     0.001 A 
HETATM   22  C   UNL     1       3.107   9.376  24.452  0.00  0.00     0.002 A 
HETATM   23  C   UNL     1       2.141   9.994  25.245  0.00  0.00     0.031 A 
BRANCH  19  24
HETATM   24  C   UNL     1      -0.605   7.323  25.258  0.00  0.00     0.036 C 
HETATM   25  C   UNL     1      -0.586   6.169  26.258  0.00  0.00     0.010 C 
ENDBRANCH  19  24
ENDBRANCH   1  18
TORSDOF 5
ENDMDL
MODEL 3
REMARK VINA RESULT:    -7.100      2.115      4.935
REMARK INTER + INTRA:          -9.955
REMARK INTER:                  -8.643
REMARK INTRA:                  -1.312
REMARK UNBOUND:                -1.194
REMARK  5 active torsions:
REMARK  status: ('A' for Active; 'I' for Inactive)
REMARK    1  A    between atoms: C_2  and  C_3 
REMARK    2  A    between atoms: C_8  and  N_9 
REMARK    3  A    between atoms: C_15  and  C_16 
REMARK    4  A    between atoms: C_19  and  O_20 
REMARK    5  A    between atoms: C_22  and  O_23 
ROOT
HETATM    1  N   UNL     1       5.264   7.470  19.691  0.00  0.00    -0.244 N 
HETATM    2  C   UNL     1       6.468   8.072  19.365  0.00  0.00     0.349 A 
HETATM    3  O   UNL     1       6.769   8.739  18.386  0.00  0.00    -0.245 OA
HETATM    4  N   UNL     1       7.323   7.784  20.415  0.00  0.00    -0.226 N 
HETATM    5  H   UNL     1       8.284   8.073  20.500  0.00  0.00     0.194 HD
HETATM    6  N   UNL     1       6.714   6.981  21.323  0.00  0.00    -0.151 NA
HETATM    7  C   UNL     1       5.497   6.799  20.872  0.00  0.00     0.171 A 
ENDROOT
BRANCH   7   8
HETATM    8  C   UNL     1       4.580   5.831  21.556  0.00  0.00     0.045 A 
HETATM    9  C   UNL     1       4.849   4.455  21.593  0.00  0.00     0.021 A 
HETATM   10  C   UNL     1       4.102   3.593  22.412  0.00  0.00     0.037 A 
HETATM   11  C   UNL     1       3.097   4.108  23.222  0.00  0.00     0.068 A 
HETATM   12  C   UNL     1       2.795   5.461  23.198  0.00  0.00     0.074 A 
HETATM   13  C   UNL     1       3.524   6.312  22.361  0.00  0.00     0.082 A 
BRANCH  11  14
HETATM   14  O   UNL     1       2.380   3.319  24.072  0.00  0.00    -0.361 OA
HETATM   15  H   UNL     1       2.754   3.390  24.965  0.00  0.00     0.217 HD
ENDBRANCH  11  14
BRANCH  13  16
HETATM   16  O   UNL     1       3.163   7.633  22.342  0.00  0.00    -0.360 OA
HETATM   17  H   UNL     1       2.210   7.705  22.513  0.00  0.00     0.217 HD
ENDBRANCH  13  16
ENDBRANCH   7   8
BRANCH   1  18
HETATM   18  C   UNL     1       4.133   7.578  18.865  0.00  0.00     0.052 A 
HETATM   19  C   UNL     1       3.742   6.576  17.953  0.00  0.00    -0.031 A 
HETATM   20  C   UNL     1       2.639   6.822  17.108  0.00  0.00     0.009 A 
HETATM   21  C   UNL     1       1.896   8.000  17.208  0.00  0.00     0.001 A 
HETATM   22  C   UNL     1       2.217   8.937  18.181  0.00  0.00     0.002 A 
HETATM   23  C   UNL     1       3.321   8.723  19.006  0.00  0.00     0.031 A 
BRANCH  19  24
HETATM   24  C   UNL     1       4.352   5.191  17.940  0.00  0.00     0.036 C 
HETATM   25  C   UNL     1       3.346   4.099  18.298  0.00  0.00     0.010 C 
ENDBRANCH  19  24
ENDBRANCH   1  18
TORSDOF 5
ENDMDL
MODEL 4
REMARK VINA RESULT:    -6.979      0.647      2.096
REMARK INTER + INTRA:          -9.805
REMARK INTER:                  -8.419
REMARK INTRA:                  -1.386
REMARK UNBOUND:                -1.194
REMARK  5 active torsions:
REMARK  status: ('A' for Active; 'I' for Inactive)
REMARK    1  A    between atoms: C_2  and  C_3 
REMARK    2  A    between atoms: C_8  and  N_9 
REMARK    3  A    between atoms: C_15  and  C_16 
REMARK    4  A    between atoms: C_19  and  O_20 
REMARK    5  A    between atoms: C_22  and  O_23 
ROOT
HETATM    1  N   UNL     1       5.317   6.515  20.205  0.00  0.00    -0.244 N 
HETATM    2  C   UNL     1       6.554   7.013  20.579  0.00  0.00     0.349 A 
HETATM    3  O   UNL     1       7.217   6.789  21.582  0.00  0.00    -0.245 OA
HETATM    4  N   UNL     1       6.946   7.847  19.546  0.00  0.00    -0.226 N 
HETATM    5  H   UNL     1       7.804   8.373  19.495  0.00  0.00     0.194 HD
HETATM    6  N   UNL     1       5.975   7.931  18.602  0.00  0.00    -0.151 NA
HETATM    7  C   UNL     1       5.014   7.141  19.015  0.00  0.00     0.171 A 
ENDROOT
BRANCH   7   8
HETATM    8  C   UNL     1       3.707   7.102  18.282  0.00  0.00     0.045 A 
HETATM    9  C   UNL     1       3.263   5.947  17.622  0.00  0.00     0.021 A 
HETATM   10  C   UNL     1       1.952   5.857  17.126  0.00  0.00     0.037 A 
HETATM   11  C   UNL     1       1.069   6.913  17.310  0.00  0.00     0.068 A 
HETATM   12  C   UNL     1       1.480   8.074  17.945  0.00  0.00     0.074 A 
HETATM   13  C   UNL     1       2.794   8.171  18.414  0.00  0.00     0.082 A 
BRANCH  11  14
HETATM   14  O   UNL     1      -0.227   6.851  16.891  0.00  0.00    -0.361 OA
HETATM   15  H   UNL     1      -0.805   7.195  17.592  0.00  0.00     0.217 HD
ENDBRANCH  11  14
BRANCH  13  16
HETATM   16  O   UNL     1       3.167   9.353  18.999  0.00  0.00    -0.360 OA
HETATM   17  H   UNL     1       2.932  10.087  18.409  0.00  0.00     0.217 HD
ENDBRANCH  13  16
ENDBRANCH   7   8
BRANCH   1  18
HETATM   18  C   UNL     1       4.616   5.594  21.001  0.00  0.00     0.052 A 
HETATM   19  C   UNL     1       4.496   4.226  20.678  0.00  0.00    -0.031 A 
HETATM   20  C   UNL     1       3.696   3.405  21.500  0.00  0.00     0.009 A 
HETATM   21  C   UNL     1       3.085   3.904  22.652  0.00  0.00     0.001 A 
HETATM   22  C   UNL     1       3.295   5.224  23.026  0.00  0.00     0.002 A 
HETATM   23  C   UNL     1       4.060   6.058  22.211  0.00  0.00     0.031 A 
BRANCH  19  24
HETATM   24  C   UNL     1       5.303   3.566  19.582  0.00  0.00     0.036 C 
HETATM   25  C   UNL     1       4.513   2.496  18.830  0.00  0.00     0.010 C 
ENDBRANCH  19  24
ENDBRANCH   1  18
TORSDOF 5
ENDMDL
MODEL 5
REMARK VINA RESULT:    -6.872      7.207      8.693
REMARK INTER + INTRA:          -9.673
REMARK INTER:                  -8.491
REMARK INTRA:                  -1.182
REMARK UNBOUND:                -1.194
REMARK  5 active torsions:
REMARK  status: ('A' for Active; 'I' for Inactive)
REMARK    1  A    between atoms: C_2  and  C_3 
REMARK    2  A    between atoms: C_8  and  N_9 
REMARK    3  A    between atoms: C_15  and  C_16 
REMARK    4  A    between atoms: C_19  and  O_20 
REMARK    5  A    between atoms: C_22  and  O_23 
ROOT
HETATM    1  N   UNL     1      -0.336  10.124  26.737  0.00  0.00    -0.244 N 
HETATM    2  C   UNL     1      -0.515   9.992  28.103  0.00  0.00     0.349 A 
HETATM    3  O   UNL     1      -0.240   9.057  28.842  0.00  0.00    -0.245 OA
HETATM    4  N   UNL     1      -1.080  11.185  28.520  0.00  0.00    -0.226 N 
HETATM    5  H   UNL     1      -1.340  11.426  29.463  0.00  0.00     0.194 HD
HETATM    6  N   UNL     1      -1.314  12.001  27.461  0.00  0.00    -0.151 NA
HETATM    7  C   UNL     1      -0.873  11.350  26.412  0.00  0.00     0.171 A 
ENDROOT
BRANCH   7   8
HETATM    8  C   UNL     1      -1.107  11.898  25.037  0.00  0.00     0.045 A 
HETATM    9  C   UNL     1      -0.092  12.543  24.314  0.00  0.00     0.021 A 
HETATM   10  C   UNL     1      -0.260  12.859  22.956  0.00  0.00     0.037 A 
HETATM   11  C   UNL     1      -1.435  12.506  22.305  0.00  0.00     0.068 A 
HETATM   12  C   UNL     1      -2.463  11.880  22.992  0.00  0.00     0.074 A 
HETATM   13  C   UNL     1      -2.303  11.592  24.351  0.00  0.00     0.082 A 
BRANCH  11  14
HETATM   14  O   UNL     1      -1.622  12.745  20.975  0.00  0.00    -0.361 OA
HETATM   15  H   UNL     1      -1.719  13.701  20.834  0.00  0.00     0.217 HD
ENDBRANCH  11  14
BRANCH  13  16
HETATM   16  O   UNL     1      -3.361  11.010  24.998  0.00  0.00    -0.360 OA
HETATM   17  H   UNL     1      -3.525  11.484  25.830  0.00  0.00     0.217 HD
ENDBRANCH  13  16
ENDBRANCH   7   8
BRANCH   1  18
HETATM   18  C   UNL     1       0.255   9.109  25.965  0.00  0.00     0.052 A 
HETATM   19  C   UNL     1       1.497   9.257  25.312  0.00  0.00    -0.031 A 
HETATM   20  C   UNL     1       1.959   8.208  24.490  0.00  0.00     0.009 A 
HETATM   21  C   UNL     1       1.247   7.012  24.369  0.00  0.00     0.001 A 
HETATM   22  C   UNL     1       0.081   6.828  25.098  0.00  0.00     0.002 A 
HETATM   23  C   UNL     1      -0.406   7.865  25.894  0.00  0.00     0.031 A 
BRANCH  19  24
HETATM   24  C   UNL     1       2.428  10.422  25.570  0.00  0.00     0.036 C 
HETATM   25  C   UNL     1       3.148  10.892  24.307  0.00  0.00     0.010 C 
ENDBRANCH  19  24
ENDBRANCH   1  18
TORSDOF 5
ENDMDL
MODEL 6
REMARK VINA RESULT:    -6.771      2.401      4.935
REMARK INTER + INTRA:          -9.549
REMARK INTER:                  -8.669
REMARK INTRA:                  -0.879
REMARK UNBOUND:                -1.194
REMARK  5 active torsions:
REMARK  status: ('A' for Active; 'I' for Inactive)
REMARK    1  A    between atoms: C_2  and  C_3 
REMARK    2  A    between atoms: C_8  and  N_9 
REMARK    3  A    between atoms: C_15  and  C_16 
REMARK    4  A    between atoms: C_19  and  O_20 
REMARK    5  A    between atoms: C_22  and  O_23 
ROOT
HETATM    1  N   UNL     1       4.021   6.748  19.610  0.00  0.00    -0.244 N 
HETATM    2  C   UNL     1       5.027   6.606  18.669  0.00  0.00     0.349 A 
HETATM    3  O   UNL     1       4.996   6.086  17.563  0.00  0.00    -0.245 OA
HETATM    4  N   UNL     1       6.142   7.207  19.226  0.00  0.00    -0.226 N 
HETATM    5  H   UNL     1       7.054   7.284  18.803  0.00  0.00     0.194 HD
HETATM    6  N   UNL     1       5.876   7.643  20.483  0.00  0.00    -0.151 NA
HETATM    7  C   UNL     1       4.615   7.354  20.695  0.00  0.00     0.171 A 
ENDROOT
BRANCH   7   8
HETATM    8  C   UNL     1       4.016   7.563  22.053  0.00  0.00     0.045 A 
HETATM    9  C   UNL     1       3.707   6.489  22.899  0.00  0.00     0.021 A 
HETATM   10  C   UNL     1       3.349   6.703  24.240  0.00  0.00     0.037 A 
HETATM   11  C   UNL     1       3.324   7.996  24.750  0.00  0.00     0.068 A 
HETATM   12  C   UNL     1       3.608   9.081  23.937  0.00  0.00     0.074 A 
HETATM   13  C   UNL     1       3.938   8.865  22.595  0.00  0.00     0.082 A 
BRANCH  11  14
HETATM   14  O   UNL     1       3.032   8.249  26.058  0.00  0.00    -0.361 OA
HETATM   15  H   UNL     1       2.434   9.013  26.109  0.00  0.00     0.217 HD
ENDBRANCH  11  14
BRANCH  13  16
HETATM   16  O   UNL     1       4.173   9.970  21.820  0.00  0.00    -0.360 OA
HETATM   17  H   UNL     1       3.326  10.396  21.609  0.00  0.00     0.217 HD
ENDBRANCH  13  16
ENDBRANCH   7   8
BRANCH   1  18
HETATM   18  C   UNL     1       2.715   6.284  19.376  0.00  0.00     0.052 A 
HETATM   19  C   UNL     1       1.819   6.910  18.485  0.00  0.00    -0.031 A 
HETATM   20  C   UNL     1       0.501   6.414  18.390  0.00  0.00     0.009 A 
HETATM   21  C   UNL     1       0.097   5.284  19.104  0.00  0.00     0.001 A 
HETATM   22  C   UNL     1       1.014   4.605  19.895  0.00  0.00     0.002 A 
HETATM   23  C   UNL     1       2.313   5.097  20.023  0.00  0.00     0.031 A 
BRANCH  19  24
HETATM   24  C   UNL     1       2.242   7.993  17.517  0.00  0.00     0.036 C 
HETATM   25  C   UNL     1       2.010   9.400  18.065  0.00  0.00     0.010 C 
ENDBRANCH  19  24
ENDBRANCH   1  18
TORSDOF 5
ENDMDL
MODEL 7
REMARK VINA RESULT:    -6.745      6.928      9.252
REMARK INTER + INTRA:          -9.516
REMARK INTER:                  -8.326
REMARK INTRA:                  -1.190
REMARK UNBOUND:                -1.194
REMARK  5 active torsions:
REMARK  status: ('A' for Active; 'I' for Inactive)
REMARK    1  A    between atoms: C_2  and  C_3 
REMARK    2  A    between atoms: C_8  and  N_9 
REMARK    3  A    between atoms: C_15  and  C_16 
REMARK    4  A    between atoms: C_19  and  O_20 
REMARK    5  A    between atoms: C_22  and  O_23 
ROOT
HETATM    1  N   UNL     1      -0.583  10.428  26.423  0.00  0.00    -0.244 N 
HETATM    2  C   UNL     1      -0.952  10.725  27.724  0.00  0.00     0.349 A 
HETATM    3  O   UNL     1      -1.707  11.590  28.146  0.00  0.00    -0.245 OA
HETATM    4  N   UNL     1      -0.290   9.803  28.517  0.00  0.00    -0.226 N 
HETATM    5  H   UNL     1      -0.336   9.735  29.521  0.00  0.00     0.194 HD
HETATM    6  N   UNL     1       0.514   9.011  27.763  0.00  0.00    -0.151 NA
HETATM    7  C   UNL     1       0.332   9.403  26.525  0.00  0.00     0.171 A 
ENDROOT
BRANCH   7   8
HETATM    8  C   UNL     1       1.182   8.839  25.427  0.00  0.00     0.045 A 
HETATM    9  C   UNL     1       2.266   9.548  24.891  0.00  0.00     0.021 A 
HETATM   10  C   UNL     1       3.177   8.928  24.021  0.00  0.00     0.037 A 
HETATM   11  C   UNL     1       3.023   7.585  23.701  0.00  0.00     0.068 A 
HETATM   12  C   UNL     1       1.955   6.859  24.202  0.00  0.00     0.074 A 
HETATM   13  C   UNL     1       1.034   7.487  25.047  0.00  0.00     0.082 A 
BRANCH  11  14
HETATM   14  O   UNL     1       3.911   6.927  22.902  0.00  0.00    -0.361 OA
HETATM   15  H   UNL     1       4.756   6.835  23.373  0.00  0.00     0.217 HD
ENDBRANCH  11  14
BRANCH  13  16
HETATM   16  O   UNL     1      -0.028   6.740  25.485  0.00  0.00    -0.360 OA
HETATM   17  H   UNL     1       0.107   5.814  25.226  0.00  0.00     0.217 HD
ENDBRANCH  13  16
ENDBRANCH   7   8
BRANCH   1  18
HETATM   18  C   UNL     1      -1.093  11.142  25.326  0.00  0.00     0.052 A 
HETATM   19  C   UNL     1      -0.444  12.260  24.760  0.00  0.00    -0.031 A 
HETATM   20  C   UNL     1      -1.086  12.958  23.716  0.00  0.00     0.009 A 
HETATM   21  C   UNL     1      -2.306  12.525  23.194  0.00  0.00     0.001 A 
HETATM   22  C   UNL     1      -2.888  11.362  23.679  0.00  0.00     0.002 A 
HETATM   23  C   UNL     1      -2.282  10.674  24.730  0.00  0.00     0.031 A 
BRANCH  19  24
HETATM   24  C   UNL     1       0.973  12.656  25.116  0.00  0.00     0.036 C 
HETATM   25  C   UNL     1       1.286  14.108  24.762  0.00  0.00     0.010 C 
ENDBRANCH  19  24
ENDBRANCH   1  18
TORSDOF 5
ENDMDL
MODEL 8
REMARK VINA RESULT:    -6.544      3.907      5.773
REMARK INTER + INTRA:          -9.269
REMARK INTER:                  -7.938
REMARK INTRA:                  -1.331
REMARK UNBOUND:                -1.194
REMARK  5 active torsions:
REMARK  status: ('A' for Active; 'I' for Inactive)
REMARK    1  A    between atoms: C_2  and  C_3 
REMARK    2  A    between atoms: C_8  and  N_9 
REMARK    3  A    between atoms: C_15  and  C_16 
REMARK    4  A    between atoms: C_19  and  O_20 
REMARK    5  A    between atoms: C_22  and  O_23 
ROOT
HETATM    1  N   UNL     1       3.183   7.437  24.964  0.00  0.00    -0.244 N 
HETATM    2  C   UNL     1       3.818   7.060  26.135  0.00  0.00     0.349 A 
HETATM    3  O   UNL     1       3.468   7.207  27.298  0.00  0.00    -0.245 OA
HETATM    4  N   UNL     1       4.984   6.430  25.738  0.00  0.00    -0.226 N 
HETATM    5  H   UNL     1       5.684   6.030  26.343  0.00  0.00     0.194 HD
HETATM    6  N   UNL     1       5.117   6.471  24.388  0.00  0.00    -0.151 NA
HETATM    7  C   UNL     1       4.042   7.080  23.948  0.00  0.00     0.171 A 
ENDROOT
BRANCH   7   8
HETATM    8  C   UNL     1       3.922   7.435  22.497  0.00  0.00     0.045 A 
HETATM    9  C   UNL     1       4.328   8.684  22.005  0.00  0.00     0.021 A 
HETATM   10  C   UNL     1       4.410   8.925  20.624  0.00  0.00     0.037 A 
HETATM   11  C   UNL     1       4.110   7.908  19.725  0.00  0.00     0.068 A 
HETATM   12  C   UNL     1       3.692   6.667  20.179  0.00  0.00     0.074 A 
HETATM   13  C   UNL     1       3.586   6.439  21.555  0.00  0.00     0.082 A 
BRANCH  11  14
HETATM   14  O   UNL     1       4.225   8.079  18.377  0.00  0.00    -0.361 OA
HETATM   15  H   UNL     1       4.889   8.765  18.199  0.00  0.00     0.217 HD
ENDBRANCH  11  14
BRANCH  13  16
HETATM   16  O   UNL     1       3.130   5.210  21.954  0.00  0.00    -0.360 OA
HETATM   17  H   UNL     1       3.887   4.619  22.094  0.00  0.00     0.217 HD
ENDBRANCH  13  16
ENDBRANCH   7   8
BRANCH   1  18
HETATM   18  C   UNL     1       1.934   8.081  24.971  0.00  0.00     0.052 A 
HETATM   19  C   UNL     1       1.787   9.484  25.003  0.00  0.00    -0.031 A 
HETATM   20  C   UNL     1       0.488  10.026  25.096  0.00  0.00     0.009 A 
HETATM   21  C   UNL     1      -0.644   9.208  25.089  0.00  0.00     0.001 A 
HETATM   22  C   UNL     1      -0.499   7.835  24.947  0.00  0.00     0.002 A 
HETATM   23  C   UNL     1       0.778   7.279  24.882  0.00  0.00     0.031 A 
BRANCH  19  24
HETATM   24  C   UNL     1       2.943  10.437  24.790  0.00  0.00     0.036 C 
HETATM   25  C   UNL     1       2.521  11.731  24.096  0.00  0.00     0.010 C 
ENDBRANCH  19  24
ENDBRANCH   1  18
TORSDOF 5
ENDMDL
MODEL 9
REMARK VINA RESULT:    -6.297      2.367      4.925
REMARK INTER + INTRA:          -8.964
REMARK INTER:                  -7.770
REMARK INTRA:                  -1.194
REMARK UNBOUND:                -1.194
REMARK  5 active torsions:
REMARK  status: ('A' for Active; 'I' for Inactive)
REMARK    1  A    between atoms: C_2  and  C_3 
REMARK    2  A    between atoms: C_8  and  N_9 
REMARK    3  A    between atoms: C_15  and  C_16 
REMARK    4  A    between atoms: C_19  and  O_20 
REMARK    5  A    between atoms: C_22  and  O_23 
ROOT
HETATM    1  N   UNL     1       4.636   6.136  19.883  0.00  0.00    -0.244 N 
HETATM    2  C   UNL     1       5.110   6.805  18.767  0.00  0.00     0.349 A 
HETATM    3  O   UNL     1       5.104   6.467  17.592  0.00  0.00    -0.245 OA
HETATM    4  N   UNL     1       5.607   8.008  19.238  0.00  0.00    -0.226 N 
HETATM    5  H   UNL     1       6.028   8.738  18.686  0.00  0.00     0.194 HD
HETATM    6  N   UNL     1       5.520   8.066  20.591  0.00  0.00    -0.151 NA
HETATM    7  C   UNL     1       4.949   6.944  20.955  0.00  0.00     0.171 A 
ENDROOT
BRANCH   7   8
HETATM    8  C   UNL     1       4.827   6.601  22.409  0.00  0.00     0.045 A 
HETATM    9  C   UNL     1       5.654   5.644  23.016  0.00  0.00     0.021 A 
HETATM   10  C   UNL     1       5.675   5.488  24.411  0.00  0.00     0.037 A 
HETATM   11  C   UNL     1       4.888   6.307  25.211  0.00  0.00     0.068 A 
HETATM   12  C   UNL     1       4.049   7.252  24.643  0.00  0.00     0.074 A 
HETATM   13  C   UNL     1       4.010   7.387  23.251  0.00  0.00     0.082 A 
BRANCH  11  14
HETATM   14  O   UNL     1       4.914   6.227  26.572  0.00  0.00    -0.361 OA
HETATM   15  H   UNL     1       4.613   7.070  26.947  0.00  0.00     0.217 HD
ENDBRANCH  11  14
BRANCH  13  16
HETATM   16  O   UNL     1       3.136   8.306  22.733  0.00  0.00    -0.360 OA
HETATM   17  H   UNL     1       2.228   8.032  22.939  0.00  0.00     0.217 HD
ENDBRANCH  13  16
ENDBRANCH   7   8
BRANCH   1  18
HETATM   18  C   UNL     1       4.019   4.877  19.788  0.00  0.00     0.052 A 
HETATM   19  C   UNL     1       2.641   4.708  19.541  0.00  0.00    -0.031 A 
HETATM   20  C   UNL     1       2.107   3.402  19.551  0.00  0.00     0.009 A 
HETATM   21  C   UNL     1       2.923   2.284  19.733  0.00  0.00     0.001 A 
HETATM   22  C   UNL     1       4.295   2.449  19.867  0.00  0.00     0.002 A 
HETATM   23  C   UNL     1       4.838   3.733  19.886  0.00  0.00     0.031 A 
BRANCH  19  24
HETATM   24  C   UNL     1       1.735   5.844  19.116  0.00  0.00     0.036 C 
HETATM   25  C   UNL     1       0.260   5.447  19.097  0.00  0.00     0.010 C 
ENDBRANCH  19  24
ENDBRANCH   1  18
TORSDOF 5
ENDMDL
