MODEL 1
REMARK minimizedAffinity -8.1924572
REMARK minimizedRMSD -1
REMARK  5 active torsions:
REMARK  status: ('A' for Active; 'I' for Inactive)
REMARK    1  A    between atoms: O_1  and  C_2 
REMARK    2  A    between atoms: C_4  and  O_5 
REMARK    3  A    between atoms: C_6  and  C_11 
REMARK    4  A    between atoms: C_8  and  C_9 
REMARK    5  A    between atoms: C_17  and  C_18 
ROOT
HETATM    1  C   UNL     1      -1.157  11.027  25.145  0.00  0.00     0.103 A 
HETATM    2  N   UNL     1      -2.467  11.003  24.845  0.00  0.00    -0.173 NA
HETATM    3  N   UNL     1      -2.566  11.620  23.676  0.00  0.00    -0.281 N 
HETATM    4  H   UNL     1      -3.493  11.723  23.278  0.00  0.00     0.189 HD
HETATM    5  C   UNL     1      -1.376  12.011  23.135  0.00  0.00     0.037 A 
HETATM    6  C   UNL     1      -1.375  12.715  21.829  0.00  0.00     0.070 C 
HETATM    7  C   UNL     1      -0.404  11.623  24.057  0.00  0.00     0.032 A 
ENDROOT
BRANCH   1   8
HETATM    8  C   UNL     1      -0.717  10.345  26.379  0.00  0.00     0.029 A 
HETATM    9  C   UNL     1      -1.559  10.182  27.496  0.00  0.00     0.081 A 
HETATM   10  C   UNL     1      -1.168   9.389  28.580  0.00  0.00     0.074 A 
HETATM   11  C   UNL     1       0.074   8.754  28.561  0.00  0.00     0.074 A 
HETATM   12  C   UNL     1       0.952   8.915  27.484  0.00  0.00    -0.024 A 
HETATM   13  C   UNL     1       0.545   9.724  26.405  0.00  0.00     0.026 A 
BRANCH   9  14
HETATM   14  O   UNL     1      -2.785  10.790  27.555  0.00  0.00    -0.360 OA
HETATM   15  H   UNL     1      -3.345  10.315  28.186  0.00  0.00     0.217 HD
ENDBRANCH   9  14
BRANCH  11  16
HETATM   16  O   UNL     1       0.431   7.937  29.598  0.00  0.00    -0.360 OA
HETATM   17  H   UNL     1      -0.302   7.891  30.231  0.00  0.00     0.217 HD
ENDBRANCH  11  16
BRANCH  12  18
HETATM   18  C   UNL     1       2.241   8.136  27.377  0.00  0.00     0.037 C 
HETATM   19  C   UNL     1       2.718   7.867  25.956  0.00  0.00     0.010 C 
ENDBRANCH  12  18
ENDBRANCH   1   8
BRANCH   7  20
HETATM   20  C   UNL     1       1.042  11.770  23.855  0.00  0.00     0.017 A 
HETATM   21  C   UNL     1       1.707  12.981  24.087  0.00  0.00     0.127 A 
HETATM   22  F   UNL     1       1.026  14.093  24.402  0.00  0.00    -0.205 F 
HETATM   23  C   UNL     1       3.101  13.077  24.020  0.00  0.00     0.043 A 
HETATM   24  C   UNL     1       3.864  11.966  23.671  0.00  0.00     0.003 A 
HETATM   25  C   UNL     1       3.227  10.762  23.391  0.00  0.00     0.001 A 
HETATM   26  C   UNL     1       1.834  10.661  23.503  0.00  0.00     0.015 A 
ENDBRANCH   7  20
TORSDOF 5
ENDMDL
MODEL 2
REMARK minimizedAffinity -7.29168749
REMARK minimizedRMSD -1
REMARK  5 active torsions:
REMARK  status: ('A' for Active; 'I' for Inactive)
REMARK    1  A    between atoms: O_1  and  C_2 
REMARK    2  A    between atoms: C_4  and  O_5 
REMARK    3  A    between atoms: C_6  and  C_11 
REMARK    4  A    between atoms: C_8  and  C_9 
REMARK    5  A    between atoms: C_17  and  C_18 
ROOT
HETATM    1  C   UNL     1       1.268   8.419  25.443  0.00  0.00     0.103 A 
HETATM    2  N   UNL     1       0.967   7.531  26.406  0.00  0.00    -0.173 NA
HETATM    3  N   UNL     1       0.118   8.161  27.206  0.00  0.00    -0.281 N 
HETATM    4  H   UNL     1      -0.221   7.658  28.018  0.00  0.00     0.189 HD
HETATM    5  C   UNL     1      -0.220   9.419  26.800  0.00  0.00     0.037 A 
HETATM    6  C   UNL     1      -1.161  10.215  27.627  0.00  0.00     0.070 C 
HETATM    7  C   UNL     1       0.496   9.635  25.623  0.00  0.00     0.032 A 
ENDROOT
BRANCH   1   8
HETATM    8  C   UNL     1       2.155   7.978  24.348  0.00  0.00     0.029 A 
HETATM    9  C   UNL     1       1.938   6.788  23.628  0.00  0.00     0.081 A 
HETATM   10  C   UNL     1       2.697   6.486  22.493  0.00  0.00     0.074 A 
HETATM   11  C   UNL     1       3.689   7.370  22.068  0.00  0.00     0.074 A 
HETATM   12  C   UNL     1       3.957   8.548  22.773  0.00  0.00    -0.024 A 
HETATM   13  C   UNL     1       3.188   8.832  23.918  0.00  0.00     0.026 A 
BRANCH   9  14
HETATM   14  O   UNL     1       0.975   5.892  24.014  0.00  0.00    -0.360 OA
HETATM   15  H   UNL     1       0.731   5.343  23.255  0.00  0.00     0.217 HD
ENDBRANCH   9  14
BRANCH  11  16
HETATM   16  O   UNL     1       4.393   7.098  20.928  0.00  0.00    -0.360 OA
HETATM   17  H   UNL     1       4.052   6.280  20.534  0.00  0.00     0.217 HD
ENDBRANCH  11  16
BRANCH  12  18
HETATM   18  C   UNL     1       4.930   9.584  22.261  0.00  0.00     0.037 C 
HETATM   19  C   UNL     1       5.349  10.635  23.281  0.00  0.00     0.010 C 
ENDBRANCH  12  18
ENDBRANCH   1   8
BRANCH   7  20
HETATM   20  C   UNL     1       0.382  10.835  24.786  0.00  0.00     0.017 A 
HETATM   21  C   UNL     1       1.448  11.728  24.615  0.00  0.00     0.127 A 
HETATM   22  F   UNL     1       2.590  11.578  25.300  0.00  0.00    -0.205 F 
HETATM   23  C   UNL     1       1.373  12.795  23.712  0.00  0.00     0.043 A 
HETATM   24  C   UNL     1       0.205  13.022  22.991  0.00  0.00     0.003 A 
HETATM   25  C   UNL     1      -0.885  12.178  23.174  0.00  0.00     0.001 A 
HETATM   26  C   UNL     1      -0.788  11.085  24.046  0.00  0.00     0.015 A 
ENDBRANCH   7  20
TORSDOF 5
ENDMDL
MODEL 3
REMARK minimizedAffinity -6.96837807
REMARK minimizedRMSD -1
REMARK  5 active torsions:
REMARK  status: ('A' for Active; 'I' for Inactive)
REMARK    1  A    between atoms: O_1  and  C_2 
REMARK    2  A    between atoms: C_4  and  O_5 
REMARK    3  A    between atoms: C_6  and  C_11 
REMARK    4  A    between atoms: C_8  and  C_9 
REMARK    5  A    between atoms: C_17  and  C_18 
ROOT
HETATM    1  C   UNL     1       2.578   9.110  24.045  0.00  0.00     0.103 A 
HETATM    2  N   UNL     1       3.071   8.631  22.890  0.00  0.00    -0.173 NA
HETATM    3  N   UNL     1       3.243   7.333  23.098  0.00  0.00    -0.281 N 
HETATM    4  H   UNL     1       3.630   6.784  22.338  0.00  0.00     0.189 HD
HETATM    5  C   UNL     1       2.834   6.893  24.323  0.00  0.00     0.037 A 
HETATM    6  C   UNL     1       2.986   5.456  24.661  0.00  0.00     0.070 C 
HETATM    7  C   UNL     1       2.362   8.026  24.986  0.00  0.00     0.032 A 
ENDROOT
BRANCH   1   8
HETATM    8  C   UNL     1       2.215  10.540  24.102  0.00  0.00     0.029 A 
HETATM    9  C   UNL     1       3.175  11.569  24.047  0.00  0.00     0.081 A 
HETATM   10  C   UNL     1       2.787  12.908  23.936  0.00  0.00     0.074 A 
HETATM   11  C   UNL     1       1.432  13.234  23.884  0.00  0.00     0.074 A 
HETATM   12  C   UNL     1       0.446  12.245  23.966  0.00  0.00    -0.024 A 
HETATM   13  C   UNL     1       0.855  10.902  24.086  0.00  0.00     0.026 A 
BRANCH   9  14
HETATM   14  O   UNL     1       4.516  11.290  24.098  0.00  0.00    -0.360 OA
HETATM   15  H   UNL     1       5.007  12.030  23.712  0.00  0.00     0.217 HD
ENDBRANCH   9  14
BRANCH  11  16
HETATM   16  O   UNL     1       1.057  14.539  23.722  0.00  0.00    -0.360 OA
HETATM   17  H   UNL     1       1.852  15.087  23.629  0.00  0.00     0.217 HD
ENDBRANCH  11  16
BRANCH  12  18
HETATM   18  C   UNL     1      -1.020  12.556  23.778  0.00  0.00     0.037 C 
HETATM   19  C   UNL     1      -1.965  11.387  24.026  0.00  0.00     0.010 C 
ENDBRANCH  12  18
ENDBRANCH   1   8
BRANCH   7  20
HETATM   20  C   UNL     1       1.744   8.016  26.317  0.00  0.00     0.017 A 
HETATM   21  C   UNL     1       0.354   8.017  26.492  0.00  0.00     0.127 A 
HETATM   22  F   UNL     1      -0.474   8.135  25.444  0.00  0.00    -0.205 F 
HETATM   23  C   UNL     1      -0.226   7.873  27.758  0.00  0.00     0.043 A 
HETATM   24  C   UNL     1       0.579   7.774  28.890  0.00  0.00     0.003 A 
HETATM   25  C   UNL     1       1.961   7.816  28.750  0.00  0.00     0.001 A 
HETATM   26  C   UNL     1       2.536   7.915  27.475  0.00  0.00     0.015 A 
ENDBRANCH   7  20
TORSDOF 5
ENDMDL
MODEL 4
REMARK minimizedAffinity -6.9073987
REMARK minimizedRMSD -1
REMARK  5 active torsions:
REMARK  status: ('A' for Active; 'I' for Inactive)
REMARK    1  A    between atoms: O_1  and  C_2 
REMARK    2  A    between atoms: C_4  and  O_5 
REMARK    3  A    between atoms: C_6  and  C_11 
REMARK    4  A    between atoms: C_8  and  C_9 
REMARK    5  A    between atoms: C_17  and  C_18 
ROOT
HETATM    1  C   UNL     1       2.585  11.411  24.056  0.00  0.00     0.103 A 
HETATM    2  N   UNL     1       3.196  12.583  23.811  0.00  0.00    -0.173 NA
HETATM    3  N   UNL     1       4.451  12.267  23.526  0.00  0.00    -0.281 N 
HETATM    4  H   UNL     1       5.092  13.028  23.325  0.00  0.00     0.189 HD
HETATM    5  C   UNL     1       4.711  10.928  23.506  0.00  0.00     0.037 A 
HETATM    6  C   UNL     1       6.089  10.465  23.202  0.00  0.00     0.070 C 
HETATM    7  C   UNL     1       3.503  10.310  23.828  0.00  0.00     0.032 A 
ENDROOT
BRANCH   1   8
HETATM    8  C   UNL     1       1.136  11.432  24.342  0.00  0.00     0.029 A 
HETATM    9  C   UNL     1       0.178  11.796  23.376  0.00  0.00     0.081 A 
HETATM   10  C   UNL     1      -1.189  11.646  23.629  0.00  0.00     0.074 A 
HETATM   11  C   UNL     1      -1.614  11.133  24.855  0.00  0.00     0.074 A 
HETATM   12  C   UNL     1      -0.696  10.788  25.851  0.00  0.00    -0.024 A 
HETATM   13  C   UNL     1       0.677  10.954  25.583  0.00  0.00     0.026 A 
BRANCH   9  14
HETATM   14  O   UNL     1       0.555  12.306  22.161  0.00  0.00    -0.360 OA
HETATM   15  H   UNL     1      -0.164  12.173  21.526  0.00  0.00     0.217 HD
ENDBRANCH   9  14
BRANCH  11  16
HETATM   16  O   UNL     1      -2.949  10.937  25.079  0.00  0.00    -0.360 OA
HETATM   17  H   UNL     1      -3.441  11.174  24.277  0.00  0.00     0.217 HD
ENDBRANCH  11  16
BRANCH  12  18
HETATM   18  C   UNL     1      -1.120  10.109  27.132  0.00  0.00     0.037 C 
HETATM   19  C   UNL     1      -0.198   8.994  27.608  0.00  0.00     0.010 C 
ENDBRANCH  12  18
ENDBRANCH   1   8
BRANCH   7  20
HETATM   20  C   UNL     1       3.288   8.858  23.847  0.00  0.00     0.017 A 
HETATM   21  C   UNL     1       2.961   8.169  25.022  0.00  0.00     0.127 A 
HETATM   22  F   UNL     1       2.936   8.798  26.207  0.00  0.00    -0.205 F 
HETATM   23  C   UNL     1       2.628   6.810  25.007  0.00  0.00     0.043 A 
HETATM   24  C   UNL     1       2.662   6.094  23.814  0.00  0.00     0.003 A 
HETATM   25  C   UNL     1       3.028   6.742  22.639  0.00  0.00     0.001 A 
HETATM   26  C   UNL     1       3.316   8.113  22.654  0.00  0.00     0.015 A 
ENDBRANCH   7  20
TORSDOF 5
ENDMDL
MODEL 5
REMARK minimizedAffinity -6.82887793
REMARK minimizedRMSD -1
REMARK  5 active torsions:
REMARK  status: ('A' for Active; 'I' for Inactive)
REMARK    1  A    between atoms: O_1  and  C_2 
REMARK    2  A    between atoms: C_4  and  O_5 
REMARK    3  A    between atoms: C_6  and  C_11 
REMARK    4  A    between atoms: C_8  and  C_9 
REMARK    5  A    between atoms: C_17  and  C_18 
ROOT
HETATM    1  C   UNL     1      -0.594   9.962  26.578  0.00  0.00     0.103 A 
HETATM    2  N   UNL     1      -1.155  10.514  27.669  0.00  0.00    -0.173 NA
HETATM    3  N   UNL     1      -0.862   9.689  28.664  0.00  0.00    -0.281 N 
HETATM    4  H   UNL     1      -1.216   9.923  29.585  0.00  0.00     0.189 HD
HETATM    5  C   UNL     1      -0.076   8.630  28.314  0.00  0.00     0.037 A 
HETATM    6  C   UNL     1       0.307   7.642  29.354  0.00  0.00     0.070 C 
HETATM    7  C   UNL     1       0.152   8.772  26.946  0.00  0.00     0.032 A 
ENDROOT
BRANCH   1   8
HETATM    8  C   UNL     1      -0.694  10.697  25.302  0.00  0.00     0.029 A 
HETATM    9  C   UNL     1      -1.914  11.196  24.807  0.00  0.00     0.081 A 
HETATM   10  C   UNL     1      -1.947  12.028  23.684  0.00  0.00     0.074 A 
HETATM   11  C   UNL     1      -0.758  12.367  23.038  0.00  0.00     0.074 A 
HETATM   12  C   UNL     1       0.472  11.868  23.479  0.00  0.00    -0.024 A 
HETATM   13  C   UNL     1       0.485  11.025  24.607  0.00  0.00     0.026 A 
BRANCH   9  14
HETATM   14  O   UNL     1      -3.104  10.885  25.411  0.00  0.00    -0.360 OA
HETATM   15  H   UNL     1      -3.763  11.555  25.177  0.00  0.00     0.217 HD
ENDBRANCH   9  14
BRANCH  11  16
HETATM   16  O   UNL     1      -0.788  13.223  21.972  0.00  0.00    -0.360 OA
HETATM   17  H   UNL     1      -1.702  13.517  21.829  0.00  0.00     0.217 HD
ENDBRANCH  11  16
BRANCH  12  18
HETATM   18  C   UNL     1       1.782  12.324  22.882  0.00  0.00     0.037 C 
HETATM   19  C   UNL     1       3.023  11.936  23.676  0.00  0.00     0.010 C 
ENDBRANCH  12  18
ENDBRANCH   1   8
BRANCH   7  20
HETATM   20  C   UNL     1       1.019   7.897  26.150  0.00  0.00     0.017 A 
HETATM   21  C   UNL     1       0.519   7.088  25.121  0.00  0.00     0.127 A 
HETATM   22  F   UNL     1      -0.799   7.001  24.891  0.00  0.00    -0.205 F 
HETATM   23  C   UNL     1       1.369   6.359  24.282  0.00  0.00     0.043 A 
HETATM   24  C   UNL     1       2.746   6.385  24.485  0.00  0.00     0.003 A 
HETATM   25  C   UNL     1       3.267   7.144  25.528  0.00  0.00     0.001 A 
HETATM   26  C   UNL     1       2.414   7.907  26.336  0.00  0.00     0.015 A 
ENDBRANCH   7  20
TORSDOF 5
ENDMDL
MODEL 6
REMARK minimizedAffinity -6.64945984
REMARK minimizedRMSD -1
REMARK  5 active torsions:
REMARK  status: ('A' for Active; 'I' for Inactive)
REMARK    1  A    between atoms: O_1  and  C_2 
REMARK    2  A    between atoms: C_4  and  O_5 
REMARK    3  A    between atoms: C_6  and  C_11 
REMARK    4  A    between atoms: C_8  and  C_9 
REMARK    5  A    between atoms: C_17  and  C_18 
ROOT
HETATM    1  C   UNL     1       2.663  11.175  24.021  0.00  0.00     0.103 A 
HETATM    2  N   UNL     1       3.197  12.406  24.114  0.00  0.00    -0.173 NA
HETATM    3  N   UNL     1       4.469  12.259  23.767  0.00  0.00    -0.281 N 
HETATM    4  H   UNL     1       5.058  13.084  23.789  0.00  0.00     0.189 HD
HETATM    5  C   UNL     1       4.813  10.995  23.385  0.00  0.00     0.037 A 
HETATM    6  C   UNL     1       6.215  10.721  22.982  0.00  0.00     0.070 C 
HETATM    7  C   UNL     1       3.648  10.238  23.512  0.00  0.00     0.032 A 
ENDROOT
BRANCH   1   8
HETATM    8  C   UNL     1       1.218  11.027  24.285  0.00  0.00     0.029 A 
HETATM    9  C   UNL     1       0.720  10.393  25.439  0.00  0.00     0.081 A 
HETATM   10  C   UNL     1      -0.646  10.417  25.738  0.00  0.00     0.074 A 
HETATM   11  C   UNL     1      -1.532  11.071  24.881  0.00  0.00     0.074 A 
HETATM   12  C   UNL     1      -1.081  11.686  23.709  0.00  0.00    -0.024 A 
HETATM   13  C   UNL     1       0.297  11.645  23.420  0.00  0.00     0.026 A 
BRANCH   9  14
HETATM   14  O   UNL     1       1.556   9.738  26.306  0.00  0.00    -0.360 OA
HETATM   15  H   UNL     1       1.127   9.674  27.172  0.00  0.00     0.217 HD
ENDBRANCH   9  14
BRANCH  11  16
HETATM   16  O   UNL     1      -2.859  11.138  25.203  0.00  0.00    -0.360 OA
HETATM   17  H   UNL     1      -2.996  10.713  26.065  0.00  0.00     0.217 HD
ENDBRANCH  11  16
BRANCH  12  18
HETATM   18  C   UNL     1      -1.994  12.513  22.835  0.00  0.00     0.037 C 
HETATM   19  C   UNL     1      -1.484  12.762  21.422  0.00  0.00     0.010 C 
ENDBRANCH  12  18
ENDBRANCH   1   8
BRANCH   7  20
HETATM   20  C   UNL     1       3.526   8.826  23.131  0.00  0.00     0.017 A 
HETATM   21  C   UNL     1       4.022   8.337  21.916  0.00  0.00     0.127 A 
HETATM   22  F   UNL     1       4.537   9.167  20.997  0.00  0.00    -0.205 F 
HETATM   23  C   UNL     1       4.019   6.970  21.620  0.00  0.00     0.043 A 
HETATM   24  C   UNL     1       3.473   6.059  22.521  0.00  0.00     0.003 A 
HETATM   25  C   UNL     1       2.933   6.521  23.715  0.00  0.00     0.001 A 
HETATM   26  C   UNL     1       2.979   7.887  24.025  0.00  0.00     0.015 A 
ENDBRANCH   7  20
TORSDOF 5
ENDMDL
MODEL 7
REMARK minimizedAffinity -6.58150434
REMARK minimizedRMSD -1
REMARK  5 active torsions:
REMARK  status: ('A' for Active; 'I' for Inactive)
REMARK    1  A    between atoms: O_1  and  C_2 
REMARK    2  A    between atoms: C_4  and  O_5 
REMARK    3  A    between atoms: C_6  and  C_11 
REMARK    4  A    between atoms: C_8  and  C_9 
REMARK    5  A    between atoms: C_17  and  C_18 
ROOT
HETATM    1  C   UNL     1       2.203   9.126  25.374  0.00  0.00     0.103 A 
HETATM    2  N   UNL     1       2.329   8.257  26.392  0.00  0.00    -0.173 NA
HETATM    3  N   UNL     1       1.328   8.541  27.215  0.00  0.00    -0.281 N 
HETATM    4  H   UNL     1       1.256   7.998  28.069  0.00  0.00     0.189 HD
HETATM    5  C   UNL     1       0.491   9.524  26.777  0.00  0.00     0.037 A 
HETATM    6  C   UNL     1      -0.660   9.922  27.625  0.00  0.00     0.070 C 
HETATM    7  C   UNL     1       1.010   9.934  25.548  0.00  0.00     0.032 A 
ENDROOT
BRANCH   1   8
HETATM    8  C   UNL     1       3.150   9.012  24.247  0.00  0.00     0.029 A 
HETATM    9  C   UNL     1       2.979   8.081  23.204  0.00  0.00     0.081 A 
HETATM   10  C   UNL     1       3.798   8.112  22.072  0.00  0.00     0.074 A 
HETATM   11  C   UNL     1       4.804   9.074  21.971  0.00  0.00     0.074 A 
HETATM   12  C   UNL     1       5.027   9.997  22.998  0.00  0.00    -0.024 A 
HETATM   13  C   UNL     1       4.197   9.945  24.135  0.00  0.00     0.026 A 
BRANCH   9  14
HETATM   14  O   UNL     1       2.004   7.120  23.265  0.00  0.00    -0.360 OA
HETATM   15  H   UNL     1       1.804   6.814  22.369  0.00  0.00     0.217 HD
ENDBRANCH   9  14
BRANCH  11  16
HETATM   16  O   UNL     1       5.569   9.135  20.840  0.00  0.00    -0.360 OA
HETATM   17  H   UNL     1       5.255   8.468  20.210  0.00  0.00     0.217 HD
ENDBRANCH  11  16
BRANCH  12  18
HETATM   18  C   UNL     1       6.018  11.128  22.858  0.00  0.00     0.037 C 
HETATM   19  C   UNL     1       7.387  10.725  22.327  0.00  0.00     0.010 C 
ENDBRANCH  12  18
ENDBRANCH   1   8
BRANCH   7  20
HETATM   20  C   UNL     1       0.383  10.927  24.668  0.00  0.00     0.017 A 
HETATM   21  C   UNL     1       1.079  12.045  24.192  0.00  0.00     0.127 A 
HETATM   22  F   UNL     1       2.325  12.312  24.612  0.00  0.00    -0.205 F 
HETATM   23  C   UNL     1       0.517  12.913  23.250  0.00  0.00     0.043 A 
HETATM   24  C   UNL     1      -0.783  12.706  22.795  0.00  0.00     0.003 A 
HETATM   25  C   UNL     1      -1.514  11.630  23.284  0.00  0.00     0.001 A 
HETATM   26  C   UNL     1      -0.929  10.739  24.194  0.00  0.00     0.015 A 
ENDBRANCH   7  20
TORSDOF 5
ENDMDL
MODEL 8
REMARK minimizedAffinity -6.49782991
REMARK minimizedRMSD -1
REMARK  5 active torsions:
REMARK  status: ('A' for Active; 'I' for Inactive)
REMARK    1  A    between atoms: O_1  and  C_2 
REMARK    2  A    between atoms: C_4  and  O_5 
REMARK    3  A    between atoms: C_6  and  C_11 
REMARK    4  A    between atoms: C_8  and  C_9 
REMARK    5  A    between atoms: C_17  and  C_18 
ROOT
HETATM    1  C   UNL     1       2.768  11.468  23.900  0.00  0.00     0.103 A 
HETATM    2  N   UNL     1       3.423  12.640  23.826  0.00  0.00    -0.173 NA
HETATM    3  N   UNL     1       4.679  12.319  23.552  0.00  0.00    -0.281 N 
HETATM    4  H   UNL     1       5.349  13.076  23.471  0.00  0.00     0.189 HD
HETATM    5  C   UNL     1       4.901  10.984  23.376  0.00  0.00     0.037 A 
HETATM    6  C   UNL     1       6.275  10.516  23.069  0.00  0.00     0.070 C 
HETATM    7  C   UNL     1       3.663  10.373  23.573  0.00  0.00     0.032 A 
ENDROOT
BRANCH   1   8
HETATM    8  C   UNL     1       1.310  11.504  24.132  0.00  0.00     0.029 A 
HETATM    9  C   UNL     1       0.395  11.901  23.139  0.00  0.00     0.081 A 
HETATM   10  C   UNL     1      -0.983  11.763  23.336  0.00  0.00     0.074 A 
HETATM   11  C   UNL     1      -1.461  11.232  24.534  0.00  0.00     0.074 A 
HETATM   12  C   UNL     1      -0.586  10.854  25.557  0.00  0.00    -0.024 A 
HETATM   13  C   UNL     1       0.798  11.007  25.344  0.00  0.00     0.026 A 
BRANCH   9  14
HETATM   14  O   UNL     1       0.824  12.429  21.949  0.00  0.00    -0.360 OA
HETATM   15  H   UNL     1       0.128  12.320  21.285  0.00  0.00     0.217 HD
ENDBRANCH   9  14
BRANCH  11  16
HETATM   16  O   UNL     1      -2.806  11.050  24.703  0.00  0.00    -0.360 OA
HETATM   17  H   UNL     1      -3.265  11.310  23.889  0.00  0.00     0.217 HD
ENDBRANCH  11  16
BRANCH  12  18
HETATM   18  C   UNL     1      -1.068  10.155  26.807  0.00  0.00     0.037 C 
HETATM   19  C   UNL     1      -0.139   9.071  27.338  0.00  0.00     0.010 C 
ENDBRANCH  12  18
ENDBRANCH   1   8
BRANCH   7  20
HETATM   20  C   UNL     1       3.405   8.938  23.404  0.00  0.00     0.017 A 
HETATM   21  C   UNL     1       3.778   8.246  22.244  0.00  0.00     0.127 A 
HETATM   22  F   UNL     1       4.294   8.894  21.190  0.00  0.00    -0.205 F 
HETATM   23  C   UNL     1       3.649   6.856  22.147  0.00  0.00     0.043 A 
HETATM   24  C   UNL     1       3.095   6.128  23.196  0.00  0.00     0.003 A 
HETATM   25  C   UNL     1       2.674   6.795  24.341  0.00  0.00     0.001 A 
HETATM   26  C   UNL     1       2.847   8.181  24.451  0.00  0.00     0.015 A 
ENDBRANCH   7  20
TORSDOF 5
ENDMDL
MODEL 9
REMARK minimizedAffinity -6.44978809
REMARK minimizedRMSD -1
REMARK  5 active torsions:
REMARK  status: ('A' for Active; 'I' for Inactive)
REMARK    1  A    between atoms: O_1  and  C_2 
REMARK    2  A    between atoms: C_4  and  O_5 
REMARK    3  A    between atoms: C_6  and  C_11 
REMARK    4  A    between atoms: C_8  and  C_9 
REMARK    5  A    between atoms: C_17  and  C_18 
ROOT
HETATM    1  C   UNL     1       2.133   9.354  25.355  0.00  0.00     0.103 A 
HETATM    2  N   UNL     1       2.480   8.523  26.353  0.00  0.00    -0.173 NA
HETATM    3  N   UNL     1       1.538   8.674  27.273  0.00  0.00    -0.281 N 
HETATM    4  H   UNL     1       1.629   8.135  28.129  0.00  0.00     0.189 HD
HETATM    5  C   UNL     1       0.532   9.525  26.925  0.00  0.00     0.037 A 
HETATM    6  C   UNL     1      -0.573   9.769  27.886  0.00  0.00     0.070 C 
HETATM    7  C   UNL     1       0.861   9.989  25.651  0.00  0.00     0.032 A 
ENDROOT
BRANCH   1   8
HETATM    8  C   UNL     1       2.968   9.360  24.137  0.00  0.00     0.029 A 
HETATM    9  C   UNL     1       3.867  10.401  23.840  0.00  0.00     0.081 A 
HETATM   10  C   UNL     1       4.760  10.295  22.768  0.00  0.00     0.074 A 
HETATM   11  C   UNL     1       4.758   9.146  21.976  0.00  0.00     0.074 A 
HETATM   12  C   UNL     1       3.859   8.103  22.220  0.00  0.00    -0.024 A 
HETATM   13  C   UNL     1       2.962   8.230  23.298  0.00  0.00     0.026 A 
BRANCH   9  14
HETATM   14  O   UNL     1       3.899  11.546  24.592  0.00  0.00    -0.360 OA
HETATM   15  H   UNL     1       4.761  11.974  24.481  0.00  0.00     0.217 HD
ENDBRANCH   9  14
BRANCH  11  16
HETATM   16  O   UNL     1       5.666   9.023  20.962  0.00  0.00    -0.360 OA
HETATM   17  H   UNL     1       6.246   9.802  20.961  0.00  0.00     0.217 HD
ENDBRANCH  11  16
BRANCH  12  18
HETATM   18  C   UNL     1       3.925   6.796  21.464  0.00  0.00     0.037 C 
HETATM   19  C   UNL     1       2.975   5.714  21.962  0.00  0.00     0.010 C 
ENDBRANCH  12  18
ENDBRANCH   1   8
BRANCH   7  20
HETATM   20  C   UNL     1       0.017  10.874  24.841  0.00  0.00     0.017 A 
HETATM   21  C   UNL     1       0.484  12.095  24.339  0.00  0.00     0.127 A 
HETATM   22  F   UNL     1       1.699  12.558  24.670  0.00  0.00    -0.205 F 
HETATM   23  C   UNL     1      -0.282  12.868  23.460  0.00  0.00     0.043 A 
HETATM   24  C   UNL     1      -1.562  12.457  23.099  0.00  0.00     0.003 A 
HETATM   25  C   UNL     1      -2.070  11.272  23.618  0.00  0.00     0.001 A 
HETATM   26  C   UNL     1      -1.280  10.480  24.463  0.00  0.00     0.015 A 
ENDBRANCH   7  20
TORSDOF 5
ENDMDL
