MODEL 1
REMARK VINA RESULT:    -9.103      0.000      0.000
REMARK INTER + INTRA:         -12.892
REMARK INTER:                 -11.637
REMARK INTRA:                  -1.255
REMARK UNBOUND:                -1.128
REMARK  6 active torsions:
REMARK  status: ('A' for Active; 'I' for Inactive)
REMARK    1  A    between atoms: C_2  and  C_3 
REMARK    2  A    between atoms: C_6  and  C_7 
REMARK    3  A    between atoms: C_9  and  N_10 
REMARK    4  A    between atoms: C_11  and  C_12 
REMARK       I    between atoms: C_12  and  N_14 
REMARK    5  A    between atoms: N_14  and  C_15 
REMARK    6  A    between atoms: C_27  and  N_28 
ROOT
HETATM    1  C   UNL     1      -0.581  15.075  21.381  0.00  0.00     0.013 C 
HETATM    2  C   UNL     1      -1.345  13.998  21.964  0.00  0.00     0.035 C 
HETATM    3  C   UNL     1      -1.048  12.703  22.574  0.00  0.00     0.043 C 
HETATM    4  C   UNL     1      -2.138  12.121  23.207  0.00  0.00     0.097 C 
HETATM    5  S   UNL     1      -3.560  13.017  22.909  0.00  0.00    -0.062 SA
HETATM    6  C   UNL     1      -2.729  14.175  21.989  0.00  0.00     0.113 C 
HETATM    7  N   UNL     1      -3.444  15.157  21.413  0.00  0.00    -0.227 NA
HETATM    8  C   UNL     1      -2.740  16.093  20.780  0.00  0.00     0.123 C 
HETATM    9  C   UNL     1      -1.345  16.124  20.769  0.00  0.00     0.096 C 
HETATM   10  C   UNL     1      -0.747  17.288  20.171  0.00  0.00     0.103 C 
HETATM   11  N   UNL     1      -0.303  18.239  19.676  0.00  0.00    -0.191 NA
ENDROOT
BRANCH   1  12
HETATM   12  C   UNL     1       0.907  15.175  21.541  0.00  0.00    -0.023 C 
HETATM   13  C   UNL     1       1.493  15.754  22.681  0.00  0.00     0.013 C 
HETATM   14  C   UNL     1       2.839  15.555  23.007  0.00  0.00     0.008 C 
HETATM   15  C   UNL     1       3.693  14.894  22.128  0.00  0.00    -0.059 C 
HETATM   16  C   UNL     1       3.176  14.458  20.908  0.00  0.00     0.008 C 
HETATM   17  C   UNL     1       1.800  14.550  20.648  0.00  0.00     0.013 C 
BRANCH  15  18
HETATM   18  C   UNL     1       5.111  14.584  22.532  0.00  0.00     0.034 C 
HETATM   19  C   UNL     1       6.113  15.392  21.716  0.00  0.00     0.010 C 
ENDBRANCH  15  18
ENDBRANCH   1  12
BRANCH   8  20
HETATM   20  N   UNL     1      -3.509  17.010  20.061  0.00  0.00    -0.286 NA
HETATM   21  H   UNL     1      -3.571  16.708  19.092  0.00  0.00     0.125 HD
HETATM   22  H   UNL     1      -4.415  17.232  20.461  0.00  0.00     0.125 HD
ENDBRANCH   8  20
BRANCH   3  23
HETATM   23  N   UNL     1       0.177  12.104  22.550  0.00  0.00    -0.301 NA
HETATM   24  H   UNL     1       0.431  11.579  21.708  0.00  0.00     0.124 HD
HETATM   25  H   UNL     1       0.978  12.685  22.809  0.00  0.00     0.124 HD
ENDBRANCH   3  23
BRANCH   4  26
HETATM   26  C   UNL     1      -2.260  10.894  24.014  0.00  0.00     0.265 C 
HETATM   27  O   UNL     1      -3.311  10.258  24.075  0.00  0.00    -0.267 OA
HETATM   28  N   UNL     1      -1.101  10.534  24.678  0.00  0.00    -0.322 N 
HETATM   29  H   UNL     1      -0.292  11.107  24.468  0.00  0.00     0.169 HD
BRANCH  28  30
HETATM   30  C   UNL     1      -0.891   9.444  25.560  0.00  0.00     0.037 A 
HETATM   31  C   UNL     1      -1.178   9.480  26.942  0.00  0.00     0.032 A 
HETATM   32  C   UNL     1      -0.947   8.366  27.763  0.00  0.00     0.042 A 
HETATM   33  C   UNL     1      -0.427   7.234  27.182  0.00  0.00     0.105 A 
HETATM   34  C   UNL     1      -0.137   7.186  25.842  0.00  0.00     0.107 A 
HETATM   35  O   UNL     1      -0.142   6.068  27.821  0.00  0.00    -0.323 OA
HETATM   36  C   UNL     1      -0.355   8.268  25.008  0.00  0.00     0.069 A 
HETATM   37  O   UNL     1       0.372   5.980  25.468  0.00  0.00    -0.323 OA
HETATM   38  C   UNL     1       0.365   5.277  26.729  0.00  0.00     0.352 A 
ENDBRANCH  28  30
ENDBRANCH   4  26
TORSDOF 6
ENDMDL
MODEL 2
REMARK VINA RESULT:    -9.008      0.692      1.352
REMARK INTER + INTRA:         -12.769
REMARK INTER:                 -11.501
REMARK INTRA:                  -1.268
REMARK UNBOUND:                -1.128
REMARK  6 active torsions:
REMARK  status: ('A' for Active; 'I' for Inactive)
REMARK    1  A    between atoms: C_2  and  C_3 
REMARK    2  A    between atoms: C_6  and  C_7 
REMARK    3  A    between atoms: C_9  and  N_10 
REMARK    4  A    between atoms: C_11  and  C_12 
REMARK       I    between atoms: C_12  and  N_14 
REMARK    5  A    between atoms: N_14  and  C_15 
REMARK    6  A    between atoms: C_27  and  N_28 
ROOT
HETATM    1  C   UNL     1      -0.555  14.995  21.410  0.00  0.00     0.013 C 
HETATM    2  C   UNL     1      -1.308  13.925  22.021  0.00  0.00     0.035 C 
HETATM    3  C   UNL     1      -1.000  12.644  22.652  0.00  0.00     0.043 C 
HETATM    4  C   UNL     1      -2.080  12.069  23.306  0.00  0.00     0.097 C 
HETATM    5  S   UNL     1      -3.510  12.952  23.004  0.00  0.00    -0.062 SA
HETATM    6  C   UNL     1      -2.692  14.096  22.054  0.00  0.00     0.113 C 
HETATM    7  N   UNL     1      -3.417  15.064  21.466  0.00  0.00    -0.227 NA
HETATM    8  C   UNL     1      -2.724  15.990  20.809  0.00  0.00     0.123 C 
HETATM    9  C   UNL     1      -1.329  16.027  20.784  0.00  0.00     0.096 C 
HETATM   10  C   UNL     1      -0.742  17.183  20.159  0.00  0.00     0.103 C 
HETATM   11  N   UNL     1      -0.307  18.126  19.642  0.00  0.00    -0.191 NA
ENDROOT
BRANCH   1  12
HETATM   12  C   UNL     1       0.934  15.105  21.555  0.00  0.00    -0.023 C 
HETATM   13  C   UNL     1       1.528  15.661  22.702  0.00  0.00     0.013 C 
HETATM   14  C   UNL     1       2.880  15.467  23.007  0.00  0.00     0.008 C 
HETATM   15  C   UNL     1       3.729  14.836  22.101  0.00  0.00    -0.059 C 
HETATM   16  C   UNL     1       3.202  14.425  20.877  0.00  0.00     0.008 C 
HETATM   17  C   UNL     1       1.822  14.511  20.636  0.00  0.00     0.013 C 
BRANCH  15  18
HETATM   18  C   UNL     1       5.155  14.529  22.481  0.00  0.00     0.034 C 
HETATM   19  C   UNL     1       6.135  15.435  21.745  0.00  0.00     0.010 C 
ENDBRANCH  15  18
ENDBRANCH   1  12
BRANCH   8  20
HETATM   20  N   UNL     1      -3.503  16.890  20.078  0.00  0.00    -0.286 NA
HETATM   21  H   UNL     1      -3.534  17.781  20.568  0.00  0.00     0.125 HD
HETATM   22  H   UNL     1      -3.255  16.990  19.099  0.00  0.00     0.125 HD
ENDBRANCH   8  20
BRANCH   3  23
HETATM   23  N   UNL     1       0.228  12.051  22.629  0.00  0.00    -0.301 NA
HETATM   24  H   UNL     1       0.690  11.885  23.528  0.00  0.00     0.124 HD
HETATM   25  H   UNL     1       0.317  11.199  22.070  0.00  0.00     0.124 HD
ENDBRANCH   3  23
BRANCH   4  26
HETATM   26  C   UNL     1      -2.190  10.858  24.138  0.00  0.00     0.265 C 
HETATM   27  O   UNL     1      -3.252  10.250  24.266  0.00  0.00    -0.267 OA
HETATM   28  N   UNL     1      -1.005  10.476  24.743  0.00  0.00    -0.322 N 
HETATM   29  H   UNL     1      -0.195  11.024  24.480  0.00  0.00     0.169 HD
BRANCH  28  30
HETATM   30  C   UNL     1      -0.775   9.394  25.629  0.00  0.00     0.037 A 
HETATM   31  C   UNL     1      -0.488   8.076  25.208  0.00  0.00     0.032 A 
HETATM   32  C   UNL     1      -0.270   7.047  26.135  0.00  0.00     0.042 A 
HETATM   33  C   UNL     1      -0.348   7.356  27.473  0.00  0.00     0.105 A 
HETATM   34  C   UNL     1      -0.632   8.630  27.897  0.00  0.00     0.107 A 
HETATM   35  O   UNL     1      -0.165   6.490  28.504  0.00  0.00    -0.323 OA
HETATM   36  C   UNL     1      -0.851   9.665  27.005  0.00  0.00     0.069 A 
HETATM   37  O   UNL     1      -0.666   8.725  29.254  0.00  0.00    -0.323 OA
HETATM   38  C   UNL     1      -0.369   7.363  29.632  0.00  0.00     0.352 A 
ENDBRANCH  28  30
ENDBRANCH   4  26
TORSDOF 6
ENDMDL
MODEL 3
REMARK VINA RESULT:    -8.674      1.154      1.583
REMARK INTER + INTRA:         -12.338
REMARK INTER:                 -11.153
REMARK INTRA:                  -1.184
REMARK UNBOUND:                -1.128
REMARK  6 active torsions:
REMARK  status: ('A' for Active; 'I' for Inactive)
REMARK    1  A    between atoms: C_2  and  C_3 
REMARK    2  A    between atoms: C_6  and  C_7 
REMARK    3  A    between atoms: C_9  and  N_10 
REMARK    4  A    between atoms: C_11  and  C_12 
REMARK       I    between atoms: C_12  and  N_14 
REMARK    5  A    between atoms: N_14  and  C_15 
REMARK    6  A    between atoms: C_27  and  N_28 
ROOT
HETATM    1  C   UNL     1      -0.766  14.420  21.962  0.00  0.00     0.013 C 
HETATM    2  C   UNL     1      -1.318  13.300  22.688  0.00  0.00     0.035 C 
HETATM    3  C   UNL     1      -0.793  12.103  23.342  0.00  0.00     0.043 C 
HETATM    4  C   UNL     1      -1.728  11.437  24.121  0.00  0.00     0.097 C 
HETATM    5  S   UNL     1      -3.280  12.119  23.919  0.00  0.00    -0.062 SA
HETATM    6  C   UNL     1      -2.704  13.301  22.847  0.00  0.00     0.113 C 
HETATM    7  N   UNL     1      -3.597  14.138  22.289  0.00  0.00    -0.227 NA
HETATM    8  C   UNL     1      -3.090  15.105  21.529  0.00  0.00     0.123 C 
HETATM    9  C   UNL     1      -1.719  15.313  21.369  0.00  0.00     0.096 C 
HETATM   10  C   UNL     1      -1.343  16.495  20.641  0.00  0.00     0.103 C 
HETATM   11  N   UNL     1      -1.080  17.455  20.044  0.00  0.00    -0.191 NA
ENDROOT
BRANCH   1  12
HETATM   12  C   UNL     1       0.704  14.720  21.958  0.00  0.00    -0.023 C 
HETATM   13  C   UNL     1       1.334  15.351  23.046  0.00  0.00     0.013 C 
HETATM   14  C   UNL     1       2.723  15.333  23.213  0.00  0.00     0.008 C 
HETATM   15  C   UNL     1       3.551  14.814  22.220  0.00  0.00    -0.059 C 
HETATM   16  C   UNL     1       2.960  14.335  21.051  0.00  0.00     0.008 C 
HETATM   17  C   UNL     1       1.563  14.243  20.950  0.00  0.00     0.013 C 
BRANCH  15  18
HETATM   18  C   UNL     1       5.035  14.693  22.453  0.00  0.00     0.034 C 
HETATM   19  C   UNL     1       5.827  15.082  21.209  0.00  0.00     0.010 C 
ENDBRANCH  15  18
ENDBRANCH   1  12
BRANCH   8  20
HETATM   20  N   UNL     1      -4.040  15.860  20.839  0.00  0.00    -0.286 NA
HETATM   21  H   UNL     1      -3.580  16.651  20.394  0.00  0.00     0.125 HD
HETATM   22  H   UNL     1      -4.632  15.340  20.198  0.00  0.00     0.125 HD
ENDBRANCH   8  20
BRANCH   3  23
HETATM   23  N   UNL     1       0.494  11.666  23.227  0.00  0.00    -0.301 NA
HETATM   24  H   UNL     1       0.645  10.656  23.146  0.00  0.00     0.124 HD
HETATM   25  H   UNL     1       1.075  12.126  22.522  0.00  0.00     0.124 HD
ENDBRANCH   3  23
BRANCH   4  26
HETATM   26  C   UNL     1      -1.607  10.269  25.011  0.00  0.00     0.265 C 
HETATM   27  O   UNL     1      -2.320  10.129  26.003  0.00  0.00    -0.267 OA
HETATM   28  N   UNL     1      -0.636   9.361  24.626  0.00  0.00    -0.322 N 
HETATM   29  H   UNL     1      -0.184   9.567  23.742  0.00  0.00     0.169 HD
BRANCH  28  30
HETATM   30  C   UNL     1      -0.239   8.165  25.275  0.00  0.00     0.037 A 
HETATM   31  C   UNL     1      -0.434   6.873  24.739  0.00  0.00     0.032 A 
HETATM   32  C   UNL     1      -0.019   5.726  25.432  0.00  0.00     0.042 A 
HETATM   33  C   UNL     1       0.585   5.895  26.655  0.00  0.00     0.105 A 
HETATM   34  C   UNL     1       0.776   7.144  27.192  0.00  0.00     0.107 A 
HETATM   35  O   UNL     1       1.049   4.903  27.460  0.00  0.00    -0.323 OA
HETATM   36  C   UNL     1       0.377   8.292  26.532  0.00  0.00     0.069 A 
HETATM   37  O   UNL     1       1.385   7.093  28.408  0.00  0.00    -0.323 OA
HETATM   38  C   UNL     1       1.554   5.668  28.571  0.00  0.00     0.352 A 
ENDBRANCH  28  30
ENDBRANCH   4  26
TORSDOF 6
ENDMDL
MODEL 4
REMARK VINA RESULT:    -8.571      2.539      3.547
REMARK INTER + INTRA:         -12.205
REMARK INTER:                 -10.981
REMARK INTRA:                  -1.223
REMARK UNBOUND:                -1.128
REMARK  6 active torsions:
REMARK  status: ('A' for Active; 'I' for Inactive)
REMARK    1  A    between atoms: C_2  and  C_3 
REMARK    2  A    between atoms: C_6  and  C_7 
REMARK    3  A    between atoms: C_9  and  N_10 
REMARK    4  A    between atoms: C_11  and  C_12 
REMARK       I    between atoms: C_12  and  N_14 
REMARK    5  A    between atoms: N_14  and  C_15 
REMARK    6  A    between atoms: C_27  and  N_28 
ROOT
HETATM    1  C   UNL     1      -0.864  13.513  23.214  0.00  0.00     0.013 C 
HETATM    2  C   UNL     1      -0.970  12.464  24.201  0.00  0.00     0.035 C 
HETATM    3  C   UNL     1      -0.087  11.436  24.748  0.00  0.00     0.043 C 
HETATM    4  C   UNL     1      -0.597  10.802  25.872  0.00  0.00     0.097 C 
HETATM    5  S   UNL     1      -2.208  11.288  26.162  0.00  0.00    -0.062 SA
HETATM    6  C   UNL     1      -2.206  12.350  24.838  0.00  0.00     0.113 C 
HETATM    7  N   UNL     1      -3.346  13.001  24.548  0.00  0.00    -0.227 NA
HETATM    8  C   UNL     1      -3.271  13.891  23.562  0.00  0.00     0.123 C 
HETATM    9  C   UNL     1      -2.080  14.208  22.907  0.00  0.00     0.096 C 
HETATM   10  C   UNL     1      -2.148  15.301  21.974  0.00  0.00     0.103 C 
HETATM   11  N   UNL     1      -2.244  16.183  21.226  0.00  0.00    -0.191 NA
ENDROOT
BRANCH   1  12
HETATM   12  C   UNL     1       0.458  13.954  22.660  0.00  0.00    -0.023 C 
HETATM   13  C   UNL     1       1.412  14.615  23.455  0.00  0.00     0.013 C 
HETATM   14  C   UNL     1       2.752  14.727  23.068  0.00  0.00     0.008 C 
HETATM   15  C   UNL     1       3.163  14.317  21.803  0.00  0.00    -0.059 C 
HETATM   16  C   UNL     1       2.201  13.814  20.927  0.00  0.00     0.008 C 
HETATM   17  C   UNL     1       0.889  13.589  21.369  0.00  0.00     0.013 C 
BRANCH  15  18
HETATM   18  C   UNL     1       4.624  14.335  21.434  0.00  0.00     0.034 C 
HETATM   19  C   UNL     1       5.455  15.065  22.483  0.00  0.00     0.010 C 
ENDBRANCH  15  18
ENDBRANCH   1  12
BRANCH   8  20
HETATM   20  N   UNL     1      -4.497  14.437  23.177  0.00  0.00    -0.286 NA
HETATM   21  H   UNL     1      -5.016  13.749  22.638  0.00  0.00     0.125 HD
HETATM   22  H   UNL     1      -5.049  14.845  23.925  0.00  0.00     0.125 HD
ENDBRANCH   8  20
BRANCH   3  23
HETATM   23  N   UNL     1       1.134  11.116  24.232  0.00  0.00    -0.301 NA
HETATM   24  H   UNL     1       1.943  11.646  24.568  0.00  0.00     0.124 HD
HETATM   25  H   UNL     1       1.388  10.126  24.231  0.00  0.00     0.124 HD
ENDBRANCH   3  23
BRANCH   4  26
HETATM   26  C   UNL     1      -0.014   9.797  26.778  0.00  0.00     0.265 C 
HETATM   27  O   UNL     1       1.117   9.345  26.608  0.00  0.00    -0.267 OA
HETATM   28  N   UNL     1      -0.844   9.423  27.820  0.00  0.00    -0.322 N 
HETATM   29  H   UNL     1      -1.715   9.940  27.880  0.00  0.00     0.169 HD
BRANCH  28  30
HETATM   30  C   UNL     1      -0.610   8.461  28.835  0.00  0.00     0.037 A 
HETATM   31  C   UNL     1      -0.620   7.066  28.618  0.00  0.00     0.032 A 
HETATM   32  C   UNL     1      -0.380   6.164  29.665  0.00  0.00     0.042 A 
HETATM   33  C   UNL     1      -0.138   6.679  30.916  0.00  0.00     0.105 A 
HETATM   34  C   UNL     1      -0.130   8.032  31.144  0.00  0.00     0.107 A 
HETATM   35  O   UNL     1       0.115   5.957  32.041  0.00  0.00    -0.323 OA
HETATM   36  C   UNL     1      -0.363   8.945  30.131  0.00  0.00     0.069 A 
HETATM   37  O   UNL     1       0.125   8.334  32.447  0.00  0.00    -0.323 OA
HETATM   38  C   UNL     1       0.279   7.012  33.009  0.00  0.00     0.352 A 
ENDBRANCH  28  30
ENDBRANCH   4  26
TORSDOF 6
ENDMDL
MODEL 5
REMARK VINA RESULT:    -8.535      2.092      2.882
REMARK INTER + INTRA:         -12.158
REMARK INTER:                 -10.873
REMARK INTRA:                  -1.285
REMARK UNBOUND:                -1.128
REMARK  6 active torsions:
REMARK  status: ('A' for Active; 'I' for Inactive)
REMARK    1  A    between atoms: C_2  and  C_3 
REMARK    2  A    between atoms: C_6  and  C_7 
REMARK    3  A    between atoms: C_9  and  N_10 
REMARK    4  A    between atoms: C_11  and  C_12 
REMARK       I    between atoms: C_12  and  N_14 
REMARK    5  A    between atoms: N_14  and  C_15 
REMARK    6  A    between atoms: C_27  and  N_28 
ROOT
HETATM    1  C   UNL     1      -1.736  13.558  22.655  0.00  0.00     0.013 C 
HETATM    2  C   UNL     1      -2.112  12.652  23.715  0.00  0.00     0.035 C 
HETATM    3  C   UNL     1      -1.410  11.847  24.714  0.00  0.00     0.043 C 
HETATM    4  C   UNL     1      -2.245  11.310  25.684  0.00  0.00     0.097 C 
HETATM    5  S   UNL     1      -3.883  11.596  25.298  0.00  0.00    -0.062 SA
HETATM    6  C   UNL     1      -3.481  12.452  23.890  0.00  0.00     0.113 C 
HETATM    7  N   UNL     1      -4.483  12.886  23.106  0.00  0.00    -0.227 NA
HETATM    8  C   UNL     1      -4.124  13.631  22.064  0.00  0.00     0.123 C 
HETATM    9  C   UNL     1      -2.807  14.022  21.821  0.00  0.00     0.096 C 
HETATM   10  C   UNL     1      -2.616  14.953  20.741  0.00  0.00     0.103 C 
HETATM   11  N   UNL     1      -2.503  15.699  19.859  0.00  0.00    -0.191 NA
ENDROOT
BRANCH   1  12
HETATM   12  C   UNL     1      -0.345  14.102  22.527  0.00  0.00    -0.023 C 
HETATM   13  C   UNL     1       0.157  15.070  23.417  0.00  0.00     0.013 C 
HETATM   14  C   UNL     1       1.526  15.336  23.531  0.00  0.00     0.008 C 
HETATM   15  C   UNL     1       2.438  14.754  22.655  0.00  0.00    -0.059 C 
HETATM   16  C   UNL     1       1.949  13.920  21.649  0.00  0.00     0.008 C 
HETATM   17  C   UNL     1       0.592  13.562  21.624  0.00  0.00     0.013 C 
BRANCH  15  18
HETATM   18  C   UNL     1       3.918  14.954  22.853  0.00  0.00     0.034 C 
HETATM   19  C   UNL     1       4.697  14.661  21.575  0.00  0.00     0.010 C 
ENDBRANCH  15  18
ENDBRANCH   1  12
BRANCH   8  20
HETATM   20  N   UNL     1      -5.163  13.937  21.182  0.00  0.00    -0.286 NA
HETATM   21  H   UNL     1      -4.882  14.713  20.589  0.00  0.00     0.125 HD
HETATM   22  H   UNL     1      -5.533  13.153  20.652  0.00  0.00     0.125 HD
ENDBRANCH   8  20
BRANCH   3  23
HETATM   23  N   UNL     1      -0.063  11.638  24.725  0.00  0.00    -0.301 NA
HETATM   24  H   UNL     1       0.531  12.395  25.076  0.00  0.00     0.124 HD
HETATM   25  H   UNL     1       0.263  10.764  25.145  0.00  0.00     0.124 HD
ENDBRANCH   3  23
BRANCH   4  26
HETATM   26  C   UNL     1      -1.956  10.535  26.903  0.00  0.00     0.265 C 
HETATM   27  O   UNL     1      -2.488  10.795  27.981  0.00  0.00    -0.267 OA
HETATM   28  N   UNL     1      -1.051   9.504  26.719  0.00  0.00    -0.322 N 
HETATM   29  H   UNL     1      -0.759   9.357  25.760  0.00  0.00     0.169 HD
BRANCH  28  30
HETATM   30  C   UNL     1      -0.531   8.604  27.682  0.00  0.00     0.037 A 
HETATM   31  C   UNL     1      -1.006   7.287  27.870  0.00  0.00     0.032 A 
HETATM   32  C   UNL     1      -0.449   6.443  28.842  0.00  0.00     0.042 A 
HETATM   33  C   UNL     1       0.575   6.937  29.615  0.00  0.00     0.105 A 
HETATM   34  C   UNL     1       1.044   8.217  29.449  0.00  0.00     0.107 A 
HETATM   35  O   UNL     1       1.230   6.264  30.597  0.00  0.00    -0.323 OA
HETATM   36  C   UNL     1       0.514   9.071  28.498  0.00  0.00     0.069 A 
HETATM   37  O   UNL     1       2.054   8.511  30.312  0.00  0.00    -0.323 OA
HETATM   38  C   UNL     1       2.166   7.267  31.037  0.00  0.00     0.352 A 
ENDBRANCH  28  30
ENDBRANCH   4  26
TORSDOF 6
ENDMDL
MODEL 6
REMARK VINA RESULT:    -8.231      1.854      2.746
REMARK INTER + INTRA:         -11.765
REMARK INTER:                 -10.622
REMARK INTRA:                  -1.142
REMARK UNBOUND:                -1.128
REMARK  6 active torsions:
REMARK  status: ('A' for Active; 'I' for Inactive)
REMARK    1  A    between atoms: C_2  and  C_3 
REMARK    2  A    between atoms: C_6  and  C_7 
REMARK    3  A    between atoms: C_9  and  N_10 
REMARK    4  A    between atoms: C_11  and  C_12 
REMARK       I    between atoms: C_12  and  N_14 
REMARK    5  A    between atoms: N_14  and  C_15 
REMARK    6  A    between atoms: C_27  and  N_28 
ROOT
HETATM    1  C   UNL     1      -1.825  13.691  22.244  0.00  0.00     0.013 C 
HETATM    2  C   UNL     1      -1.893  12.428  22.941  0.00  0.00     0.035 C 
HETATM    3  C   UNL     1      -0.933  11.448  23.446  0.00  0.00     0.043 C 
HETATM    4  C   UNL     1      -1.500  10.486  24.270  0.00  0.00     0.097 C 
HETATM    5  S   UNL     1      -3.201  10.628  24.286  0.00  0.00    -0.062 SA
HETATM    6  C   UNL     1      -3.175  11.969  23.247  0.00  0.00     0.113 C 
HETATM    7  N   UNL     1      -4.351  12.485  22.850  0.00  0.00    -0.227 NA
HETATM    8  C   UNL     1      -4.281  13.590  22.112  0.00  0.00     0.123 C 
HETATM    9  C   UNL     1      -3.081  14.241  21.822  0.00  0.00     0.096 C 
HETATM   10  C   UNL     1      -3.199  15.506  21.146  0.00  0.00     0.103 C 
HETATM   11  N   UNL     1      -3.336  16.518  20.596  0.00  0.00    -0.191 NA
ENDROOT
BRANCH   1  12
HETATM   12  C   UNL     1      -0.543  14.456  22.104  0.00  0.00    -0.023 C 
HETATM   13  C   UNL     1      -0.082  15.320  23.115  0.00  0.00     0.013 C 
HETATM   14  C   UNL     1       1.243  15.768  23.162  0.00  0.00     0.008 C 
HETATM   15  C   UNL     1       2.123  15.495  22.118  0.00  0.00    -0.059 C 
HETATM   16  C   UNL     1       1.642  14.783  21.018  0.00  0.00     0.008 C 
HETATM   17  C   UNL     1       0.352  14.232  21.040  0.00  0.00     0.013 C 
BRANCH  15  18
HETATM   18  C   UNL     1       3.575  15.882  22.225  0.00  0.00     0.034 C 
HETATM   19  C   UNL     1       4.460  14.664  22.469  0.00  0.00     0.010 C 
ENDBRANCH  15  18
ENDBRANCH   1  12
BRANCH   8  20
HETATM   20  N   UNL     1      -5.502  14.015  21.584  0.00  0.00    -0.286 NA
HETATM   21  H   UNL     1      -5.839  14.812  22.118  0.00  0.00     0.125 HD
HETATM   22  H   UNL     1      -5.511  14.183  20.583  0.00  0.00     0.125 HD
ENDBRANCH   8  20
BRANCH   3  23
HETATM   23  N   UNL     1       0.400  11.461  23.163  0.00  0.00    -0.301 NA
HETATM   24  H   UNL     1       1.049  11.577  23.946  0.00  0.00     0.124 HD
HETATM   25  H   UNL     1       0.753  10.702  22.575  0.00  0.00     0.124 HD
ENDBRANCH   3  23
BRANCH   4  26
HETATM   26  C   UNL     1      -0.899   9.393  25.055  0.00  0.00     0.265 C 
HETATM   27  O   UNL     1      -0.853   9.423  26.284  0.00  0.00    -0.267 OA
HETATM   28  N   UNL     1      -0.408   8.349  24.290  0.00  0.00    -0.322 N 
HETATM   29  H   UNL     1      -0.591   8.424  23.296  0.00  0.00     0.169 HD
BRANCH  28  30
HETATM   30  C   UNL     1       0.259   7.176  24.723  0.00  0.00     0.037 A 
HETATM   31  C   UNL     1      -0.330   6.188  25.542  0.00  0.00     0.032 A 
HETATM   32  C   UNL     1       0.384   5.048  25.938  0.00  0.00     0.042 A 
HETATM   33  C   UNL     1       1.683   4.919  25.506  0.00  0.00     0.105 A 
HETATM   34  C   UNL     1       2.272   5.873  24.714  0.00  0.00     0.107 A 
HETATM   35  O   UNL     1       2.519   3.885  25.789  0.00  0.00    -0.323 OA
HETATM   36  C   UNL     1       1.592   7.007  24.309  0.00  0.00     0.069 A 
HETATM   37  O   UNL     1       3.559   5.559  24.401  0.00  0.00    -0.323 OA
HETATM   38  C   UNL     1       3.708   4.297  25.086  0.00  0.00     0.352 A 
ENDBRANCH  28  30
ENDBRANCH   4  26
TORSDOF 6
ENDMDL
MODEL 7
REMARK VINA RESULT:    -8.117      2.383      3.111
REMARK INTER + INTRA:         -11.618
REMARK INTER:                 -10.370
REMARK INTRA:                  -1.247
REMARK UNBOUND:                -1.128
REMARK  6 active torsions:
REMARK  status: ('A' for Active; 'I' for Inactive)
REMARK    1  A    between atoms: C_2  and  C_3 
REMARK    2  A    between atoms: C_6  and  C_7 
REMARK    3  A    between atoms: C_9  and  N_10 
REMARK    4  A    between atoms: C_11  and  C_12 
REMARK       I    between atoms: C_12  and  N_14 
REMARK    5  A    between atoms: N_14  and  C_15 
REMARK    6  A    between atoms: C_27  and  N_28 
ROOT
HETATM    1  C   UNL     1      -1.041  13.527  23.075  0.00  0.00     0.013 C 
HETATM    2  C   UNL     1      -1.176  12.458  24.037  0.00  0.00     0.035 C 
HETATM    3  C   UNL     1      -0.316  11.403  24.571  0.00  0.00     0.043 C 
HETATM    4  C   UNL     1      -0.850  10.754  25.675  0.00  0.00     0.097 C 
HETATM    5  S   UNL     1      -2.456  11.261  25.958  0.00  0.00    -0.062 SA
HETATM    6  C   UNL     1      -2.421  12.351  24.658  0.00  0.00     0.113 C 
HETATM    7  N   UNL     1      -3.546  13.028  24.370  0.00  0.00    -0.227 NA
HETATM    8  C   UNL     1      -3.445  13.938  23.404  0.00  0.00     0.123 C 
HETATM    9  C   UNL     1      -2.242  14.249  22.770  0.00  0.00     0.096 C 
HETATM   10  C   UNL     1      -2.280  15.363  21.860  0.00  0.00     0.103 C 
HETATM   11  N   UNL     1      -2.353  16.263  21.131  0.00  0.00    -0.191 NA
ENDROOT
BRANCH   1  12
HETATM   12  C   UNL     1       0.294  13.958  22.545  0.00  0.00    -0.023 C 
HETATM   13  C   UNL     1       1.211  14.672  23.338  0.00  0.00     0.013 C 
HETATM   14  C   UNL     1       2.563  14.783  22.993  0.00  0.00     0.008 C 
HETATM   15  C   UNL     1       3.024  14.314  21.766  0.00  0.00    -0.059 C 
HETATM   16  C   UNL     1       2.100  13.753  20.884  0.00  0.00     0.008 C 
HETATM   17  C   UNL     1       0.776  13.533  21.291  0.00  0.00     0.013 C 
BRANCH  15  18
HETATM   18  C   UNL     1       4.497  14.334  21.448  0.00  0.00     0.034 C 
HETATM   19  C   UNL     1       5.294  15.033  22.544  0.00  0.00     0.010 C 
ENDBRANCH  15  18
ENDBRANCH   1  12
BRANCH   8  20
HETATM   20  N   UNL     1      -4.658  14.513  23.018  0.00  0.00    -0.286 NA
HETATM   21  H   UNL     1      -4.542  14.965  22.115  0.00  0.00     0.125 HD
HETATM   22  H   UNL     1      -5.464  13.896  23.047  0.00  0.00     0.125 HD
ENDBRANCH   8  20
BRANCH   3  23
HETATM   23  N   UNL     1       0.905  11.075  24.061  0.00  0.00    -0.301 NA
HETATM   24  H   UNL     1       1.154  11.459  23.145  0.00  0.00     0.124 HD
HETATM   25  H   UNL     1       1.710  11.197  24.681  0.00  0.00     0.124 HD
ENDBRANCH   3  23
BRANCH   4  26
HETATM   26  C   UNL     1      -0.294   9.720  26.565  0.00  0.00     0.265 C 
HETATM   27  O   UNL     1      -0.626   9.631  27.746  0.00  0.00    -0.267 OA
HETATM   28  N   UNL     1       0.613   8.873  25.953  0.00  0.00    -0.322 N 
HETATM   29  H   UNL     1       0.725   9.014  24.956  0.00  0.00     0.169 HD
BRANCH  28  30
HETATM   30  C   UNL     1       1.353   7.809  26.527  0.00  0.00     0.037 A 
HETATM   31  C   UNL     1       0.774   6.619  27.019  0.00  0.00     0.032 A 
HETATM   32  C   UNL     1       1.562   5.602  27.578  0.00  0.00     0.042 A 
HETATM   33  C   UNL     1       2.921   5.798  27.636  0.00  0.00     0.105 A 
HETATM   34  C   UNL     1       3.499   6.951  27.168  0.00  0.00     0.107 A 
HETATM   35  O   UNL     1       3.833   4.923  28.140  0.00  0.00    -0.323 OA
HETATM   36  C   UNL     1       2.747   7.971  26.612  0.00  0.00     0.069 A 
HETATM   37  O   UNL     1       4.851   6.949  27.321  0.00  0.00    -0.323 OA
HETATM   38  C   UNL     1       5.055   5.660  27.939  0.00  0.00     0.352 A 
ENDBRANCH  28  30
ENDBRANCH   4  26
TORSDOF 6
ENDMDL
MODEL 8
REMARK VINA RESULT:    -8.053      3.880      8.901
REMARK INTER + INTRA:         -11.535
REMARK INTER:                 -10.503
REMARK INTRA:                  -1.031
REMARK UNBOUND:                -1.128
REMARK  6 active torsions:
REMARK  status: ('A' for Active; 'I' for Inactive)
REMARK    1  A    between atoms: C_2  and  C_3 
REMARK    2  A    between atoms: C_6  and  C_7 
REMARK    3  A    between atoms: C_9  and  N_10 
REMARK    4  A    between atoms: C_11  and  C_12 
REMARK       I    between atoms: C_12  and  N_14 
REMARK    5  A    between atoms: N_14  and  C_15 
REMARK    6  A    between atoms: C_27  and  N_28 
ROOT
HETATM    1  C   UNL     1       0.668   8.822  26.599  0.00  0.00     0.013 C 
HETATM    2  C   UNL     1      -0.324   9.708  26.038  0.00  0.00     0.035 C 
HETATM    3  C   UNL     1      -0.541  10.373  24.754  0.00  0.00     0.043 C 
HETATM    4  C   UNL     1      -1.796  10.952  24.630  0.00  0.00     0.097 C 
HETATM    5  S   UNL     1      -2.645  10.880  26.110  0.00  0.00    -0.062 SA
HETATM    6  C   UNL     1      -1.378  10.058  26.884  0.00  0.00     0.113 C 
HETATM    7  N   UNL     1      -1.508   9.784  28.194  0.00  0.00    -0.227 NA
HETATM    8  C   UNL     1      -0.533   9.058  28.735  0.00  0.00     0.123 C 
HETATM    9  C   UNL     1       0.527   8.530  27.996  0.00  0.00     0.096 C 
HETATM   10  C   UNL     1       1.407   7.640  28.707  0.00  0.00     0.103 C 
HETATM   11  N   UNL     1       2.096   6.933  29.316  0.00  0.00    -0.191 NA
ENDROOT
BRANCH   1  12
HETATM   12  C   UNL     1       1.687   8.126  25.748  0.00  0.00    -0.023 C 
HETATM   13  C   UNL     1       1.326   7.123  24.830  0.00  0.00     0.013 C 
HETATM   14  C   UNL     1       2.184   6.710  23.804  0.00  0.00     0.008 C 
HETATM   15  C   UNL     1       3.496   7.176  23.744  0.00  0.00    -0.059 C 
HETATM   16  C   UNL     1       3.935   8.043  24.745  0.00  0.00     0.008 C 
HETATM   17  C   UNL     1       3.031   8.547  25.693  0.00  0.00     0.013 C 
BRANCH  15  18
HETATM   18  C   UNL     1       4.378   6.817  22.577  0.00  0.00     0.034 C 
HETATM   19  C   UNL     1       5.793   7.353  22.762  0.00  0.00     0.010 C 
ENDBRANCH  15  18
ENDBRANCH   1  12
BRANCH   8  20
HETATM   20  N   UNL     1      -0.611   8.922  30.122  0.00  0.00    -0.286 NA
HETATM   21  H   UNL     1      -1.539   9.197  30.435  0.00  0.00     0.125 HD
HETATM   22  H   UNL     1      -0.325   8.020  30.491  0.00  0.00     0.125 HD
ENDBRANCH   8  20
BRANCH   3  23
HETATM   23  N   UNL     1       0.379  10.423  23.749  0.00  0.00    -0.301 NA
HETATM   24  H   UNL     1       0.599  11.341  23.355  0.00  0.00     0.124 HD
HETATM   25  H   UNL     1       1.261   9.931  23.909  0.00  0.00     0.124 HD
ENDBRANCH   3  23
BRANCH   4  26
HETATM   26  C   UNL     1      -2.457  11.623  23.497  0.00  0.00     0.265 C 
HETATM   27  O   UNL     1      -2.940  10.992  22.559  0.00  0.00    -0.267 OA
HETATM   28  N   UNL     1      -2.484  13.004  23.593  0.00  0.00    -0.322 N 
HETATM   29  H   UNL     1      -2.120  13.379  24.461  0.00  0.00     0.169 HD
BRANCH  28  30
HETATM   30  C   UNL     1      -3.001  13.943  22.666  0.00  0.00     0.037 A 
HETATM   31  C   UNL     1      -4.378  14.125  22.411  0.00  0.00     0.032 A 
HETATM   32  C   UNL     1      -4.828  15.072  21.479  0.00  0.00     0.042 A 
HETATM   33  C   UNL     1      -3.885  15.820  20.814  0.00  0.00     0.105 A 
HETATM   34  C   UNL     1      -2.543  15.651  21.046  0.00  0.00     0.107 A 
HETATM   35  O   UNL     1      -4.138  16.779  19.884  0.00  0.00    -0.323 OA
HETATM   36  C   UNL     1      -2.071  14.725  21.960  0.00  0.00     0.069 A 
HETATM   37  O   UNL     1      -1.780  16.483  20.287  0.00  0.00    -0.323 OA
HETATM   38  C   UNL     1      -2.799  17.195  19.552  0.00  0.00     0.352 A 
ENDBRANCH  28  30
ENDBRANCH   4  26
TORSDOF 6
ENDMDL
MODEL 9
REMARK VINA RESULT:    -7.917      5.004      8.222
REMARK INTER + INTRA:         -11.359
REMARK INTER:                 -10.231
REMARK INTRA:                  -1.128
REMARK UNBOUND:                -1.128
REMARK  6 active torsions:
REMARK  status: ('A' for Active; 'I' for Inactive)
REMARK    1  A    between atoms: C_2  and  C_3 
REMARK    2  A    between atoms: C_6  and  C_7 
REMARK    3  A    between atoms: C_9  and  N_10 
REMARK    4  A    between atoms: C_11  and  C_12 
REMARK       I    between atoms: C_12  and  N_14 
REMARK    5  A    between atoms: N_14  and  C_15 
REMARK    6  A    between atoms: C_27  and  N_28 
ROOT
HETATM    1  C   UNL     1      -0.444   9.824  26.024  0.00  0.00     0.013 C 
HETATM    2  C   UNL     1       0.732   8.986  26.000  0.00  0.00     0.035 C 
HETATM    3  C   UNL     1       1.623   8.446  24.974  0.00  0.00     0.043 C 
HETATM    4  C   UNL     1       2.776   7.868  25.485  0.00  0.00     0.097 C 
HETATM    5  S   UNL     1       2.710   7.789  27.189  0.00  0.00    -0.062 SA
HETATM    6  C   UNL     1       1.192   8.545  27.241  0.00  0.00     0.113 C 
HETATM    7  N   UNL     1       0.598   8.689  28.438  0.00  0.00    -0.227 NA
HETATM    8  C   UNL     1      -0.545   9.370  28.441  0.00  0.00     0.123 C 
HETATM    9  C   UNL     1      -1.076   9.978  27.302  0.00  0.00     0.096 C 
HETATM   10  C   UNL     1      -2.235  10.804  27.513  0.00  0.00     0.103 C 
HETATM   11  N   UNL     1      -3.172  11.456  27.722  0.00  0.00    -0.191 NA
ENDROOT
BRANCH   1  12
HETATM   12  C   UNL     1      -0.887  10.610  24.826  0.00  0.00    -0.023 C 
HETATM   13  C   UNL     1      -0.161  11.719  24.357  0.00  0.00     0.013 C 
HETATM   14  C   UNL     1      -0.354  12.246  23.074  0.00  0.00     0.008 C 
HETATM   15  C   UNL     1      -1.386  11.781  22.264  0.00  0.00    -0.059 C 
HETATM   16  C   UNL     1      -2.233  10.796  22.772  0.00  0.00     0.008 C 
HETATM   17  C   UNL     1      -1.952  10.188  24.005  0.00  0.00     0.013 C 
BRANCH  15  18
HETATM   18  C   UNL     1      -1.519  12.270  20.845  0.00  0.00     0.034 C 
HETATM   19  C   UNL     1      -2.792  13.087  20.653  0.00  0.00     0.010 C 
ENDBRANCH  15  18
ENDBRANCH   1  12
BRANCH   8  20
HETATM   20  N   UNL     1      -1.219   9.370  29.664  0.00  0.00    -0.286 NA
HETATM   21  H   UNL     1      -0.885  10.145  30.230  0.00  0.00     0.125 HD
HETATM   22  H   UNL     1      -2.232   9.336  29.606  0.00  0.00     0.125 HD
ENDBRANCH   8  20
BRANCH   3  23
HETATM   23  N   UNL     1       1.377   8.503  23.634  0.00  0.00    -0.301 NA
HETATM   24  H   UNL     1       2.169   8.361  23.001  0.00  0.00     0.124 HD
HETATM   25  H   UNL     1       0.594   7.944  23.286  0.00  0.00     0.124 HD
ENDBRANCH   3  23
BRANCH   4  26
HETATM   26  C   UNL     1       3.964   7.303  24.821  0.00  0.00     0.265 C 
HETATM   27  O   UNL     1       4.968   6.976  25.452  0.00  0.00    -0.267 OA
HETATM   28  N   UNL     1       3.840   7.174  23.449  0.00  0.00    -0.322 N 
HETATM   29  H   UNL     1       2.926   7.408  23.078  0.00  0.00     0.169 HD
BRANCH  28  30
HETATM   30  C   UNL     1       4.800   6.709  22.515  0.00  0.00     0.037 A 
HETATM   31  C   UNL     1       5.817   7.516  21.959  0.00  0.00     0.032 A 
HETATM   32  C   UNL     1       6.737   6.996  21.038  0.00  0.00     0.042 A 
HETATM   33  C   UNL     1       6.620   5.672  20.686  0.00  0.00     0.105 A 
HETATM   34  C   UNL     1       5.634   4.877  21.213  0.00  0.00     0.107 A 
HETATM   35  O   UNL     1       7.421   5.004  19.814  0.00  0.00    -0.323 OA
HETATM   36  C   UNL     1       4.712   5.362  22.124  0.00  0.00     0.069 A 
HETATM   37  O   UNL     1       5.688   3.604  20.735  0.00  0.00    -0.323 OA
HETATM   38  C   UNL     1       6.824   3.693  19.848  0.00  0.00     0.352 A 
ENDBRANCH  28  30
ENDBRANCH   4  26
TORSDOF 6
ENDMDL
