MODEL 1
REMARK VINA RESULT:    -9.831      0.000      0.000
REMARK INTER + INTRA:         -16.492
REMARK INTER:                 -13.581
REMARK INTRA:                  -2.912
REMARK UNBOUND:                -2.638
REMARK  8 active torsions:
REMARK  status: ('A' for Active; 'I' for Inactive)
REMARK    1  A    between atoms: C_7  and  N_8 
REMARK    2  A    between atoms: C_14  and  C_15 
REMARK    3  A    between atoms: C_17  and  C_18 
REMARK       I    between atoms: C_18  and  N_20 
REMARK    4  A    between atoms: N_20  and  C_22 
REMARK    5  A    between atoms: C_22  and  C_23 
REMARK    6  A    between atoms: C_28  and  C_29 
REMARK    7  A    between atoms: C_35  and  O_36 
REMARK    8  A    between atoms: C_38  and  O_39 
ROOT
HETATM    1  C   UNL     1      -0.441  11.139  24.236  0.00  0.00     0.046 C 
HETATM    2  C   UNL     1       0.471  12.215  24.276  0.00  0.00     0.038 C 
HETATM    3  C   UNL     1       0.849  12.946  23.144  0.00  0.00     0.066 C 
HETATM    4  C   UNL     1       0.316  12.556  21.914  0.00  0.00     0.084 C 
HETATM    5  C   UNL     1      -0.622  11.526  21.840  0.00  0.00     0.075 C 
HETATM    6  C   UNL     1      -1.046  10.875  23.007  0.00  0.00     0.082 C 
ENDROOT
BRANCH   3   7
HETATM    7  C   UNL     1       1.623  14.223  23.263  0.00  0.00     0.256 C 
HETATM    8  O   UNL     1       2.790  14.115  23.648  0.00  0.00    -0.267 OA
HETATM    9  N   UNL     1       1.067  15.456  22.904  0.00  0.00    -0.348 N 
HETATM   10  C   UNL     1       1.972  16.579  22.692  0.00  0.00     0.153 C 
BRANCH   9  11
HETATM   11  C   UNL     1      -0.348  15.776  23.106  0.00  0.00     0.165 C 
BRANCH  11  12
HETATM   12  C   UNL     1      -1.193  16.038  21.865  0.00  0.00    -0.029 A 
HETATM   13  C   UNL     1      -0.722  16.929  20.872  0.00  0.00     0.010 A 
HETATM   14  C   UNL     1      -1.511  17.312  19.791  0.00  0.00     0.001 A 
HETATM   15  C   UNL     1      -2.788  16.799  19.667  0.00  0.00     0.001 A 
HETATM   16  C   UNL     1      -3.251  15.860  20.592  0.00  0.00     0.013 A 
HETATM   17  C   UNL     1      -2.479  15.444  21.705  0.00  0.00    -0.017 A 
BRANCH  17  18
HETATM   18  C   UNL     1      -3.074  14.465  22.659  0.00  0.00    -0.008 A 
HETATM   19  C   UNL     1      -2.930  14.614  24.048  0.00  0.00     0.015 A 
HETATM   20  C   UNL     1      -3.410  13.646  24.931  0.00  0.00     0.020 A 
HETATM   21  C   UNL     1      -4.018  12.521  24.406  0.00  0.00     0.116 A 
HETATM   22  N   UNL     1      -4.253  12.359  23.092  0.00  0.00    -0.272 NA
HETATM   23  C   UNL     1      -3.817  13.347  22.271  0.00  0.00     0.128 A 
ENDBRANCH  17  18
ENDBRANCH  11  12
ENDBRANCH   9  11
ENDBRANCH   3   7
BRANCH   4  24
HETATM   24  O   UNL     1       0.614  13.189  20.735  0.00  0.00    -0.360 OA
HETATM   25  H   UNL     1       0.589  12.514  20.020  0.00  0.00     0.217 HD
ENDBRANCH   4  24
BRANCH   1  26
HETATM   26  C   UNL     1      -0.705  10.492  25.562  0.00  0.00     0.172 A 
HETATM   27  N   UNL     1      -0.267   9.270  26.023  0.00  0.00    -0.244 N 
HETATM   28  C   UNL     1      -0.855   9.102  27.262  0.00  0.00     0.349 A 
HETATM   29  O   UNL     1      -0.805   8.154  28.032  0.00  0.00    -0.245 OA
HETATM   30  N   UNL     1      -1.540  10.284  27.504  0.00  0.00    -0.226 N 
HETATM   31  H   UNL     1      -2.075  10.507  28.331  0.00  0.00     0.194 HD
HETATM   32  N   UNL     1      -1.450  11.121  26.441  0.00  0.00    -0.151 NA
BRANCH  27  33
HETATM   33  C   UNL     1       0.509   8.277  25.409  0.00  0.00     0.051 C 
HETATM   34  C   UNL     1       1.900   8.397  25.239  0.00  0.00    -0.035 C 
HETATM   35  C   UNL     1       2.716   9.380  26.030  0.00  0.00     0.050 C 
HETATM   36  C   UNL     1       2.551   7.489  24.386  0.00  0.00     0.009 C 
HETATM   37  C   UNL     1       1.848   6.446  23.782  0.00  0.00     0.001 C 
HETATM   38  C   UNL     1       0.504   6.245  24.072  0.00  0.00     0.002 C 
HETATM   39  C   UNL     1      -0.165   7.160  24.885  0.00  0.00     0.031 C 
ENDBRANCH  27  33
ENDBRANCH   1  26
BRANCH   6  40
HETATM   40  O   UNL     1      -2.150  10.085  22.924  0.00  0.00    -0.360 OA
HETATM   41  H   UNL     1      -2.697  10.342  22.164  0.00  0.00     0.217 HD
ENDBRANCH   6  40
TORSDOF 8
ENDMDL
MODEL 2
REMARK VINA RESULT:    -9.608      0.463      1.252
REMARK INTER + INTRA:         -16.178
REMARK INTER:                 -13.321
REMARK INTRA:                  -2.857
REMARK UNBOUND:                -2.638
REMARK  8 active torsions:
REMARK  status: ('A' for Active; 'I' for Inactive)
REMARK    1  A    between atoms: C_7  and  N_8 
REMARK    2  A    between atoms: C_14  and  C_15 
REMARK    3  A    between atoms: C_17  and  C_18 
REMARK       I    between atoms: C_18  and  N_20 
REMARK    4  A    between atoms: N_20  and  C_22 
REMARK    5  A    between atoms: C_22  and  C_23 
REMARK    6  A    between atoms: C_28  and  C_29 
REMARK    7  A    between atoms: C_35  and  O_36 
REMARK    8  A    between atoms: C_38  and  O_39 
ROOT
HETATM    1  C   UNL     1      -0.413  11.098  24.311  0.00  0.00     0.046 C 
HETATM    2  C   UNL     1       0.494  12.178  24.314  0.00  0.00     0.038 C 
HETATM    3  C   UNL     1       0.804  12.925  23.171  0.00  0.00     0.066 C 
HETATM    4  C   UNL     1       0.204  12.548  21.968  0.00  0.00     0.084 C 
HETATM    5  C   UNL     1      -0.732  11.514  21.935  0.00  0.00     0.075 C 
HETATM    6  C   UNL     1      -1.086  10.846  23.116  0.00  0.00     0.082 C 
ENDROOT
BRANCH   3   7
HETATM    7  C   UNL     1       1.579  14.203  23.263  0.00  0.00     0.256 C 
HETATM    8  O   UNL     1       2.755  14.101  23.620  0.00  0.00    -0.267 OA
HETATM    9  N   UNL     1       1.013  15.433  22.908  0.00  0.00    -0.348 N 
HETATM   10  C   UNL     1       1.910  16.556  22.667  0.00  0.00     0.153 C 
BRANCH   9  11
HETATM   11  C   UNL     1      -0.398  15.752  23.142  0.00  0.00     0.165 C 
BRANCH  11  12
HETATM   12  C   UNL     1      -1.270  16.014  21.920  0.00  0.00    -0.029 A 
HETATM   13  C   UNL     1      -0.823  16.909  20.919  0.00  0.00     0.010 A 
HETATM   14  C   UNL     1      -1.636  17.291  19.856  0.00  0.00     0.001 A 
HETATM   15  C   UNL     1      -2.915  16.775  19.758  0.00  0.00     0.001 A 
HETATM   16  C   UNL     1      -3.355  15.833  20.692  0.00  0.00     0.013 A 
HETATM   17  C   UNL     1      -2.558  15.418  21.786  0.00  0.00    -0.017 A 
BRANCH  17  18
HETATM   18  C   UNL     1      -3.130  14.435  22.752  0.00  0.00    -0.008 A 
HETATM   19  C   UNL     1      -2.924  14.561  24.135  0.00  0.00     0.015 A 
HETATM   20  C   UNL     1      -3.383  13.589  25.024  0.00  0.00     0.020 A 
HETATM   21  C   UNL     1      -4.034  12.483  24.511  0.00  0.00     0.116 A 
HETATM   22  N   UNL     1      -4.327  12.344  23.206  0.00  0.00    -0.272 NA
HETATM   23  C   UNL     1      -3.909  13.336  22.380  0.00  0.00     0.128 A 
ENDBRANCH  17  18
ENDBRANCH  11  12
ENDBRANCH   9  11
ENDBRANCH   3   7
BRANCH   4  24
HETATM   24  O   UNL     1       0.432  13.197  20.783  0.00  0.00    -0.360 OA
HETATM   25  H   UNL     1      -0.369  13.086  20.224  0.00  0.00     0.217 HD
ENDBRANCH   4  24
BRANCH   1  26
HETATM   26  C   UNL     1      -0.599  10.432  25.642  0.00  0.00     0.172 A 
HETATM   27  N   UNL     1       0.176   9.457  26.229  0.00  0.00    -0.244 N 
HETATM   28  C   UNL     1      -0.467   9.123  27.406  0.00  0.00     0.349 A 
HETATM   29  O   UNL     1      -0.187   8.274  28.239  0.00  0.00    -0.245 OA
HETATM   30  N   UNL     1      -1.546   9.991  27.492  0.00  0.00    -0.226 N 
HETATM   31  H   UNL     1      -2.224  10.031  28.239  0.00  0.00     0.194 HD
HETATM   32  N   UNL     1      -1.620  10.779  26.390  0.00  0.00    -0.151 NA
BRANCH  27  33
HETATM   33  C   UNL     1       1.320   8.788  25.771  0.00  0.00     0.051 C 
HETATM   34  C   UNL     1       1.263   7.543  25.121  0.00  0.00    -0.035 C 
HETATM   35  C   UNL     1      -0.009   7.020  24.515  0.00  0.00     0.050 C 
HETATM   36  C   UNL     1       2.458   6.828  24.938  0.00  0.00     0.009 C 
HETATM   37  C   UNL     1       3.684   7.373  25.324  0.00  0.00     0.001 C 
HETATM   38  C   UNL     1       3.749   8.666  25.830  0.00  0.00     0.002 C 
HETATM   39  C   UNL     1       2.568   9.373  26.053  0.00  0.00     0.031 C 
ENDBRANCH  27  33
ENDBRANCH   1  26
BRANCH   6  40
HETATM   40  O   UNL     1      -2.191  10.052  23.085  0.00  0.00    -0.360 OA
HETATM   41  H   UNL     1      -2.397   9.790  22.173  0.00  0.00     0.217 HD
ENDBRANCH   6  40
TORSDOF 8
ENDMDL
MODEL 3
REMARK VINA RESULT:    -9.177      2.322      7.461
REMARK INTER + INTRA:         -15.570
REMARK INTER:                 -12.609
REMARK INTRA:                  -2.962
REMARK UNBOUND:                -2.638
REMARK  8 active torsions:
REMARK  status: ('A' for Active; 'I' for Inactive)
REMARK    1  A    between atoms: C_7  and  N_8 
REMARK    2  A    between atoms: C_14  and  C_15 
REMARK    3  A    between atoms: C_17  and  C_18 
REMARK       I    between atoms: C_18  and  N_20 
REMARK    4  A    between atoms: N_20  and  C_22 
REMARK    5  A    between atoms: C_22  and  C_23 
REMARK    6  A    between atoms: C_28  and  C_29 
REMARK    7  A    between atoms: C_35  and  O_36 
REMARK    8  A    between atoms: C_38  and  O_39 
ROOT
HETATM    1  C   UNL     1       0.082  14.295  24.879  0.00  0.00     0.046 C 
HETATM    2  C   UNL     1      -1.032  13.447  24.711  0.00  0.00     0.038 C 
HETATM    3  C   UNL     1      -2.066  13.340  25.649  0.00  0.00     0.066 C 
HETATM    4  C   UNL     1      -1.957  14.090  26.822  0.00  0.00     0.084 C 
HETATM    5  C   UNL     1      -0.893  14.973  27.003  0.00  0.00     0.075 C 
HETATM    6  C   UNL     1       0.078  15.122  26.003  0.00  0.00     0.082 C 
ENDROOT
BRANCH   3   7
HETATM    7  C   UNL     1      -3.338  12.619  25.327  0.00  0.00     0.256 C 
HETATM    8  O   UNL     1      -4.347  13.320  25.222  0.00  0.00    -0.267 OA
HETATM    9  N   UNL     1      -3.364  11.237  25.106  0.00  0.00    -0.348 N 
HETATM   10  C   UNL     1      -4.534  10.671  24.445  0.00  0.00     0.153 C 
BRANCH   9  11
HETATM   11  C   UNL     1      -2.495  10.303  25.826  0.00  0.00     0.165 C 
BRANCH  11  12
HETATM   12  C   UNL     1      -1.224   9.842  25.123  0.00  0.00    -0.029 A 
HETATM   13  C   UNL     1      -0.955  10.280  23.804  0.00  0.00     0.010 A 
HETATM   14  C   UNL     1       0.115   9.781  23.066  0.00  0.00     0.001 A 
HETATM   15  C   UNL     1       0.955   8.843  23.636  0.00  0.00     0.001 A 
HETATM   16  C   UNL     1       0.756   8.449  24.962  0.00  0.00     0.013 A 
HETATM   17  C   UNL     1      -0.320   8.933  25.746  0.00  0.00    -0.017 A 
BRANCH  17  18
HETATM   18  C   UNL     1      -0.471   8.426  27.140  0.00  0.00    -0.008 A 
HETATM   19  C   UNL     1      -0.291   9.266  28.250  0.00  0.00     0.015 A 
HETATM   20  C   UNL     1      -0.344   8.765  29.551  0.00  0.00     0.020 A 
HETATM   21  C   UNL     1      -0.561   7.411  29.725  0.00  0.00     0.116 A 
HETATM   22  N   UNL     1      -0.816   6.571  28.707  0.00  0.00    -0.272 NA
HETATM   23  C   UNL     1      -0.806   7.108  27.460  0.00  0.00     0.128 A 
ENDBRANCH  17  18
ENDBRANCH  11  12
ENDBRANCH   9  11
ENDBRANCH   3   7
BRANCH   4  24
HETATM   24  O   UNL     1      -2.901  14.066  27.815  0.00  0.00    -0.360 OA
HETATM   25  H   UNL     1      -3.103  14.998  28.056  0.00  0.00     0.217 HD
ENDBRANCH   4  24
BRANCH   1  26
HETATM   26  C   UNL     1       1.075  14.255  23.757  0.00  0.00     0.172 A 
HETATM   27  N   UNL     1       0.837  14.227  22.401  0.00  0.00    -0.244 N 
HETATM   28  C   UNL     1       2.078  14.108  21.803  0.00  0.00     0.349 A 
HETATM   29  O   UNL     1       2.371  13.993  20.622  0.00  0.00    -0.245 OA
HETATM   30  N   UNL     1       2.992  14.164  22.845  0.00  0.00    -0.226 N 
HETATM   31  H   UNL     1       3.997  14.117  22.762  0.00  0.00     0.194 HD
HETATM   32  N   UNL     1       2.357  14.238  24.041  0.00  0.00    -0.151 NA
BRANCH  27  33
HETATM   33  C   UNL     1      -0.362  14.200  21.676  0.00  0.00     0.051 C 
HETATM   34  C   UNL     1      -1.114  15.357  21.407  0.00  0.00    -0.035 C 
HETATM   35  C   UNL     1      -0.521  16.734  21.517  0.00  0.00     0.050 C 
HETATM   36  C   UNL     1      -2.421  15.207  20.913  0.00  0.00     0.009 C 
HETATM   37  C   UNL     1      -2.934  13.942  20.623  0.00  0.00     0.001 C 
HETATM   38  C   UNL     1      -2.134  12.813  20.750  0.00  0.00     0.002 C 
HETATM   39  C   UNL     1      -0.848  12.942  21.276  0.00  0.00     0.031 C 
ENDBRANCH  27  33
ENDBRANCH   1  26
BRANCH   6  40
HETATM   40  O   UNL     1       0.926  16.182  26.098  0.00  0.00    -0.360 OA
HETATM   41  H   UNL     1       0.441  17.017  25.994  0.00  0.00     0.217 HD
ENDBRANCH   6  40
TORSDOF 8
ENDMDL
MODEL 4
REMARK VINA RESULT:    -9.063      1.938      4.328
REMARK INTER + INTRA:         -15.410
REMARK INTER:                 -13.151
REMARK INTRA:                  -2.258
REMARK UNBOUND:                -2.638
REMARK  8 active torsions:
REMARK  status: ('A' for Active; 'I' for Inactive)
REMARK    1  A    between atoms: C_7  and  N_8 
REMARK    2  A    between atoms: C_14  and  C_15 
REMARK    3  A    between atoms: C_17  and  C_18 
REMARK       I    between atoms: C_18  and  N_20 
REMARK    4  A    between atoms: N_20  and  C_22 
REMARK    5  A    between atoms: C_22  and  C_23 
REMARK    6  A    between atoms: C_28  and  C_29 
REMARK    7  A    between atoms: C_35  and  O_36 
REMARK    8  A    between atoms: C_38  and  O_39 
ROOT
HETATM    1  C   UNL     1      -2.608  10.507  26.399  0.00  0.00     0.046 C 
HETATM    2  C   UNL     1      -2.005  10.861  25.174  0.00  0.00     0.038 C 
HETATM    3  C   UNL     1      -2.723  11.350  24.076  0.00  0.00     0.066 C 
HETATM    4  C   UNL     1      -4.110  11.454  24.204  0.00  0.00     0.084 C 
HETATM    5  C   UNL     1      -4.737  11.156  25.414  0.00  0.00     0.075 C 
HETATM    6  C   UNL     1      -3.975  10.754  26.521  0.00  0.00     0.082 C 
ENDROOT
BRANCH   3   7
HETATM    7  C   UNL     1      -2.026  11.938  22.888  0.00  0.00     0.256 C 
HETATM    8  O   UNL     1      -1.202  11.211  22.328  0.00  0.00    -0.267 OA
HETATM    9  N   UNL     1      -2.337  13.217  22.413  0.00  0.00    -0.348 N 
HETATM   10  C   UNL     1      -1.904  13.571  21.066  0.00  0.00     0.153 C 
BRANCH   9  11
HETATM   11  C   UNL     1      -2.711  14.322  23.299  0.00  0.00     0.165 C 
BRANCH  11  12
HETATM   12  C   UNL     1      -1.835  14.570  24.521  0.00  0.00    -0.029 A 
HETATM   13  C   UNL     1      -2.305  14.206  25.806  0.00  0.00     0.010 A 
HETATM   14  C   UNL     1      -1.610  14.536  26.966  0.00  0.00     0.001 A 
HETATM   15  C   UNL     1      -0.415  15.225  26.869  0.00  0.00     0.001 A 
HETATM   16  C   UNL     1       0.108  15.531  25.611  0.00  0.00     0.013 A 
HETATM   17  C   UNL     1      -0.568  15.213  24.408  0.00  0.00    -0.017 A 
BRANCH  17  18
HETATM   18  C   UNL     1       0.054  15.614  23.113  0.00  0.00    -0.008 A 
HETATM   19  C   UNL     1      -0.360  16.766  22.426  0.00  0.00     0.015 A 
HETATM   20  C   UNL     1       0.162  17.085  21.172  0.00  0.00     0.020 A 
HETATM   21  C   UNL     1       1.087  16.228  20.607  0.00  0.00     0.116 A 
HETATM   22  N   UNL     1       1.578  15.153  21.248  0.00  0.00    -0.272 NA
HETATM   23  C   UNL     1       1.083  14.906  22.487  0.00  0.00     0.128 A 
ENDBRANCH  17  18
ENDBRANCH  11  12
ENDBRANCH   9  11
ENDBRANCH   3   7
BRANCH   4  24
HETATM   24  O   UNL     1      -4.921  11.913  23.199  0.00  0.00    -0.360 OA
HETATM   25  H   UNL     1      -5.844  11.918  23.540  0.00  0.00     0.217 HD
ENDBRANCH   4  24
BRANCH   1  26
HETATM   26  C   UNL     1      -1.658  10.002  27.442  0.00  0.00     0.172 A 
HETATM   27  N   UNL     1      -0.582   9.157  27.287  0.00  0.00    -0.244 N 
HETATM   28  C   UNL     1      -0.090   8.934  28.559  0.00  0.00     0.349 A 
HETATM   29  O   UNL     1       0.824   8.213  28.931  0.00  0.00    -0.245 OA
HETATM   30  N   UNL     1      -0.854   9.738  29.392  0.00  0.00    -0.226 N 
HETATM   31  H   UNL     1      -0.755   9.828  30.393  0.00  0.00     0.194 HD
HETATM   32  N   UNL     1      -1.824  10.376  28.690  0.00  0.00    -0.151 NA
BRANCH  27  33
HETATM   33  C   UNL     1      -0.076   8.508  26.151  0.00  0.00     0.051 C 
HETATM   34  C   UNL     1       0.786   9.138  25.236  0.00  0.00    -0.035 C 
HETATM   35  C   UNL     1       1.542  10.389  25.588  0.00  0.00     0.050 C 
HETATM   36  C   UNL     1       1.027   8.511  24.003  0.00  0.00     0.009 C 
HETATM   37  C   UNL     1       0.486   7.256  23.721  0.00  0.00     0.001 C 
HETATM   38  C   UNL     1      -0.242   6.572  24.687  0.00  0.00     0.002 C 
HETATM   39  C   UNL     1      -0.523   7.198  25.902  0.00  0.00     0.031 C 
ENDBRANCH  27  33
ENDBRANCH   1  26
BRANCH   6  40
HETATM   40  O   UNL     1      -4.585  10.748  27.737  0.00  0.00    -0.360 OA
HETATM   41  H   UNL     1      -4.890   9.854  27.961  0.00  0.00     0.217 HD
ENDBRANCH   6  40
TORSDOF 8
ENDMDL
MODEL 5
REMARK VINA RESULT:    -9.062      0.977      2.370
REMARK INTER + INTRA:         -15.409
REMARK INTER:                 -12.662
REMARK INTRA:                  -2.746
REMARK UNBOUND:                -2.638
REMARK  8 active torsions:
REMARK  status: ('A' for Active; 'I' for Inactive)
REMARK    1  A    between atoms: C_7  and  N_8 
REMARK    2  A    between atoms: C_14  and  C_15 
REMARK    3  A    between atoms: C_17  and  C_18 
REMARK       I    between atoms: C_18  and  N_20 
REMARK    4  A    between atoms: N_20  and  C_22 
REMARK    5  A    between atoms: C_22  and  C_23 
REMARK    6  A    between atoms: C_28  and  C_29 
REMARK    7  A    between atoms: C_35  and  O_36 
REMARK    8  A    between atoms: C_38  and  O_39 
ROOT
HETATM    1  C   UNL     1      -0.420  11.195  23.961  0.00  0.00     0.046 C 
HETATM    2  C   UNL     1       0.616  12.152  24.006  0.00  0.00     0.038 C 
HETATM    3  C   UNL     1       1.064  12.853  22.880  0.00  0.00     0.066 C 
HETATM    4  C   UNL     1       0.472  12.553  21.652  0.00  0.00     0.084 C 
HETATM    5  C   UNL     1      -0.585  11.645  21.576  0.00  0.00     0.075 C 
HETATM    6  C   UNL     1      -1.068  11.029  22.738  0.00  0.00     0.082 C 
ENDROOT
BRANCH   3   7
HETATM    7  C   UNL     1       1.990  14.023  23.008  0.00  0.00     0.256 C 
HETATM    8  O   UNL     1       3.102  13.786  23.484  0.00  0.00    -0.267 OA
HETATM    9  N   UNL     1       1.627  15.299  22.561  0.00  0.00    -0.348 N 
HETATM   10  C   UNL     1       2.684  16.286  22.375  0.00  0.00     0.153 C 
BRANCH   9  11
HETATM   11  C   UNL     1       0.255  15.807  22.642  0.00  0.00     0.165 C 
BRANCH  11  12
HETATM   12  C   UNL     1      -0.547  15.465  23.891  0.00  0.00    -0.029 A 
HETATM   13  C   UNL     1       0.036  15.640  25.169  0.00  0.00     0.010 A 
HETATM   14  C   UNL     1      -0.598  15.214  26.333  0.00  0.00     0.001 A 
HETATM   15  C   UNL     1      -1.841  14.615  26.250  0.00  0.00     0.001 A 
HETATM   16  C   UNL     1      -2.471  14.497  25.009  0.00  0.00     0.013 A 
HETATM   17  C   UNL     1      -1.862  14.919  23.803  0.00  0.00    -0.017 A 
BRANCH  17  18
HETATM   18  C   UNL     1      -2.599  14.717  22.522  0.00  0.00    -0.008 A 
HETATM   19  C   UNL     1      -2.394  15.559  21.417  0.00  0.00     0.015 A 
HETATM   20  C   UNL     1      -3.153  15.421  20.254  0.00  0.00     0.020 A 
HETATM   21  C   UNL     1      -4.130  14.445  20.219  0.00  0.00     0.116 A 
HETATM   22  N   UNL     1      -4.322  13.561  21.215  0.00  0.00    -0.272 NA
HETATM   23  C   UNL     1      -3.528  13.696  22.307  0.00  0.00     0.128 A 
ENDBRANCH  17  18
ENDBRANCH  11  12
ENDBRANCH   9  11
ENDBRANCH   3   7
BRANCH   4  24
HETATM   24  O   UNL     1       0.828  13.167  20.480  0.00  0.00    -0.360 OA
HETATM   25  H   UNL     1       1.162  12.472  19.869  0.00  0.00     0.217 HD
ENDBRANCH   4  24
BRANCH   1  26
HETATM   26  C   UNL     1      -0.742  10.559  25.280  0.00  0.00     0.172 A 
HETATM   27  N   UNL     1      -0.303   9.355  25.783  0.00  0.00    -0.244 N 
HETATM   28  C   UNL     1      -0.955   9.190  26.991  0.00  0.00     0.349 A 
HETATM   29  O   UNL     1      -0.927   8.254  27.776  0.00  0.00    -0.245 OA
HETATM   30  N   UNL     1      -1.679  10.359  27.177  0.00  0.00    -0.226 N 
HETATM   31  H   UNL     1      -2.264  10.580  27.969  0.00  0.00     0.194 HD
HETATM   32  N   UNL     1      -1.549  11.183  26.107  0.00  0.00    -0.151 NA
BRANCH  27  33
HETATM   33  C   UNL     1       0.528   8.372  25.228  0.00  0.00     0.051 C 
HETATM   34  C   UNL     1       1.926   8.512  25.154  0.00  0.00    -0.035 C 
HETATM   35  C   UNL     1       2.671   9.509  25.997  0.00  0.00     0.050 C 
HETATM   36  C   UNL     1       2.647   7.612  24.352  0.00  0.00     0.009 C 
HETATM   37  C   UNL     1       2.003   6.557  23.704  0.00  0.00     0.001 C 
HETATM   38  C   UNL     1       0.645   6.337  23.900  0.00  0.00     0.002 C 
HETATM   39  C   UNL     1      -0.092   7.243  24.662  0.00  0.00     0.031 C 
ENDBRANCH  27  33
ENDBRANCH   1  26
BRANCH   6  40
HETATM   40  O   UNL     1      -2.262  10.379  22.659  0.00  0.00    -0.360 OA
HETATM   41  H   UNL     1      -2.879  10.717  23.328  0.00  0.00     0.217 HD
ENDBRANCH   6  40
TORSDOF 8
ENDMDL
MODEL 6
REMARK VINA RESULT:    -8.943      1.855      3.798
REMARK INTER + INTRA:         -15.241
REMARK INTER:                 -13.991
REMARK INTRA:                  -1.251
REMARK UNBOUND:                -2.638
REMARK  8 active torsions:
REMARK  status: ('A' for Active; 'I' for Inactive)
REMARK    1  A    between atoms: C_7  and  N_8 
REMARK    2  A    between atoms: C_14  and  C_15 
REMARK    3  A    between atoms: C_17  and  C_18 
REMARK       I    between atoms: C_18  and  N_20 
REMARK    4  A    between atoms: N_20  and  C_22 
REMARK    5  A    between atoms: C_22  and  C_23 
REMARK    6  A    between atoms: C_28  and  C_29 
REMARK    7  A    between atoms: C_35  and  O_36 
REMARK    8  A    between atoms: C_38  and  O_39 
ROOT
HETATM    1  C   UNL     1      -2.579  10.422  26.489  0.00  0.00     0.046 C 
HETATM    2  C   UNL     1      -2.033  10.504  25.190  0.00  0.00     0.038 C 
HETATM    3  C   UNL     1      -2.762  10.937  24.076  0.00  0.00     0.066 C 
HETATM    4  C   UNL     1      -4.105  11.267  24.269  0.00  0.00     0.084 C 
HETATM    5  C   UNL     1      -4.666  11.242  25.545  0.00  0.00     0.075 C 
HETATM    6  C   UNL     1      -3.882  10.889  26.653  0.00  0.00     0.082 C 
ENDROOT
BRANCH   3   7
HETATM    7  C   UNL     1      -2.087  11.238  22.773  0.00  0.00     0.256 C 
HETATM    8  O   UNL     1      -1.335  10.364  22.337  0.00  0.00    -0.267 OA
HETATM    9  N   UNL     1      -2.343  12.421  22.070  0.00  0.00    -0.348 N 
HETATM   10  C   UNL     1      -1.954  12.480  20.666  0.00  0.00     0.153 C 
BRANCH   9  11
HETATM   11  C   UNL     1      -2.609  13.697  22.737  0.00  0.00     0.165 C 
BRANCH  11  12
HETATM   12  C   UNL     1      -2.722  14.938  21.859  0.00  0.00    -0.029 A 
HETATM   13  C   UNL     1      -3.973  15.288  21.297  0.00  0.00     0.010 A 
HETATM   14  C   UNL     1      -4.104  16.326  20.379  0.00  0.00     0.001 A 
HETATM   15  C   UNL     1      -2.987  17.054  20.012  0.00  0.00     0.001 A 
HETATM   16  C   UNL     1      -1.754  16.778  20.608  0.00  0.00     0.013 A 
HETATM   17  C   UNL     1      -1.579  15.731  21.546  0.00  0.00    -0.017 A 
BRANCH  17  18
HETATM   18  C   UNL     1      -0.216  15.490  22.099  0.00  0.00    -0.008 A 
HETATM   19  C   UNL     1       0.163  15.984  23.358  0.00  0.00     0.015 A 
HETATM   20  C   UNL     1       1.468  15.833  23.829  0.00  0.00     0.020 A 
HETATM   21  C   UNL     1       2.390  15.200  23.019  0.00  0.00     0.116 A 
HETATM   22  N   UNL     1       2.070  14.640  21.839  0.00  0.00    -0.272 NA
HETATM   23  C   UNL     1       0.779  14.764  21.439  0.00  0.00     0.128 A 
ENDBRANCH  17  18
ENDBRANCH  11  12
ENDBRANCH   9  11
ENDBRANCH   3   7
BRANCH   4  24
HETATM   24  O   UNL     1      -4.921  11.699  23.256  0.00  0.00    -0.360 OA
HETATM   25  H   UNL     1      -4.361  11.832  22.458  0.00  0.00     0.217 HD
ENDBRANCH   4  24
BRANCH   1  26
HETATM   26  C   UNL     1      -1.628   9.930  27.538  0.00  0.00     0.172 A 
HETATM   27  N   UNL     1      -0.554   9.080  27.393  0.00  0.00    -0.244 N 
HETATM   28  C   UNL     1      -0.061   8.874  28.668  0.00  0.00     0.349 A 
HETATM   29  O   UNL     1       0.852   8.157  29.049  0.00  0.00    -0.245 OA
HETATM   30  N   UNL     1      -0.822   9.693  29.490  0.00  0.00    -0.226 N 
HETATM   31  H   UNL     1      -0.720   9.798  30.489  0.00  0.00     0.194 HD
HETATM   32  N   UNL     1      -1.791  10.323  28.780  0.00  0.00    -0.151 NA
BRANCH  27  33
HETATM   33  C   UNL     1      -0.052   8.412  26.267  0.00  0.00     0.051 C 
HETATM   34  C   UNL     1       0.820   9.023  25.348  0.00  0.00    -0.035 C 
HETATM   35  C   UNL     1       1.589  10.269  25.688  0.00  0.00     0.050 C 
HETATM   36  C   UNL     1       1.058   8.379  24.122  0.00  0.00     0.009 C 
HETATM   37  C   UNL     1       0.504   7.127  23.852  0.00  0.00     0.001 C 
HETATM   38  C   UNL     1      -0.235   6.463  24.823  0.00  0.00     0.002 C 
HETATM   39  C   UNL     1      -0.514   7.105  26.030  0.00  0.00     0.031 C 
ENDBRANCH  27  33
ENDBRANCH   1  26
BRANCH   6  40
HETATM   40  O   UNL     1      -4.386  11.148  27.891  0.00  0.00    -0.360 OA
HETATM   41  H   UNL     1      -4.890  11.977  27.887  0.00  0.00     0.217 HD
ENDBRANCH   6  40
TORSDOF 8
ENDMDL
MODEL 7
REMARK VINA RESULT:    -8.934      2.238      6.876
REMARK INTER + INTRA:         -15.228
REMARK INTER:                 -12.632
REMARK INTRA:                  -2.597
REMARK UNBOUND:                -2.638
REMARK  8 active torsions:
REMARK  status: ('A' for Active; 'I' for Inactive)
REMARK    1  A    between atoms: C_7  and  N_8 
REMARK    2  A    between atoms: C_14  and  C_15 
REMARK    3  A    between atoms: C_17  and  C_18 
REMARK       I    between atoms: C_18  and  N_20 
REMARK    4  A    between atoms: N_20  and  C_22 
REMARK    5  A    between atoms: C_22  and  C_23 
REMARK    6  A    between atoms: C_28  and  C_29 
REMARK    7  A    between atoms: C_35  and  O_36 
REMARK    8  A    between atoms: C_38  and  O_39 
ROOT
HETATM    1  C   UNL     1      -2.381  15.341  22.307  0.00  0.00     0.046 C 
HETATM    2  C   UNL     1      -1.818  14.624  23.384  0.00  0.00     0.038 C 
HETATM    3  C   UNL     1      -2.577  13.875  24.290  0.00  0.00     0.066 C 
HETATM    4  C   UNL     1      -3.964  13.874  24.128  0.00  0.00     0.084 C 
HETATM    5  C   UNL     1      -4.553  14.533  23.049  0.00  0.00     0.075 C 
HETATM    6  C   UNL     1      -3.754  15.200  22.110  0.00  0.00     0.082 C 
ENDROOT
BRANCH   3   7
HETATM    7  C   UNL     1      -1.928  12.941  25.265  0.00  0.00     0.256 C 
HETATM    8  O   UNL     1      -1.172  13.458  26.090  0.00  0.00    -0.267 OA
HETATM    9  N   UNL     1      -2.212  11.571  25.270  0.00  0.00    -0.348 N 
HETATM   10  C   UNL     1      -1.846  10.800  26.453  0.00  0.00     0.153 C 
BRANCH   9  11
HETATM   11  C   UNL     1      -2.484  10.814  24.046  0.00  0.00     0.165 C 
BRANCH  11  12
HETATM   12  C   UNL     1      -1.637  11.132  22.820  0.00  0.00    -0.029 A 
HETATM   13  C   UNL     1      -2.216  11.820  21.727  0.00  0.00     0.010 A 
HETATM   14  C   UNL     1      -1.531  12.013  20.531  0.00  0.00     0.001 A 
HETATM   15  C   UNL     1      -0.240  11.535  20.402  0.00  0.00     0.001 A 
HETATM   16  C   UNL     1       0.381  10.918  21.490  0.00  0.00     0.013 A 
HETATM   17  C   UNL     1      -0.280  10.704  22.724  0.00  0.00    -0.017 A 
BRANCH  17  18
HETATM   18  C   UNL     1       0.455  10.002  23.815  0.00  0.00    -0.008 A 
HETATM   19  C   UNL     1       1.309  10.696  24.688  0.00  0.00     0.015 A 
HETATM   20  C   UNL     1       2.063  10.019  25.647  0.00  0.00     0.020 A 
HETATM   21  C   UNL     1       1.966   8.643  25.710  0.00  0.00     0.116 A 
HETATM   22  N   UNL     1       1.110   7.932  24.954  0.00  0.00    -0.272 NA
HETATM   23  C   UNL     1       0.356   8.632  24.069  0.00  0.00     0.128 A 
ENDBRANCH  17  18
ENDBRANCH  11  12
ENDBRANCH   9  11
ENDBRANCH   3   7
BRANCH   4  24
HETATM   24  O   UNL     1      -4.812  13.183  24.953  0.00  0.00    -0.360 OA
HETATM   25  H   UNL     1      -5.006  12.319  24.525  0.00  0.00     0.217 HD
ENDBRANCH   4  24
BRANCH   1  26
HETATM   26  C   UNL     1      -1.389  16.080  21.460  0.00  0.00     0.172 A 
HETATM   27  N   UNL     1      -0.019  16.128  21.586  0.00  0.00    -0.244 N 
HETATM   28  C   UNL     1       0.418  17.011  20.617  0.00  0.00     0.349 A 
HETATM   29  O   UNL     1       1.546  17.414  20.375  0.00  0.00    -0.245 OA
HETATM   30  N   UNL     1      -0.720  17.369  19.909  0.00  0.00    -0.226 N 
HETATM   31  H   UNL     1      -0.761  17.996  19.119  0.00  0.00     0.194 HD
HETATM   32  N   UNL     1      -1.825  16.799  20.451  0.00  0.00    -0.151 NA
BRANCH  27  33
HETATM   33  C   UNL     1       0.841  15.545  22.527  0.00  0.00     0.051 C 
HETATM   34  C   UNL     1       1.662  14.444  22.226  0.00  0.00    -0.035 C 
HETATM   35  C   UNL     1       1.985  14.056  20.810  0.00  0.00     0.050 C 
HETATM   36  C   UNL     1       2.285  13.764  23.286  0.00  0.00     0.009 C 
HETATM   37  C   UNL     1       2.154  14.215  24.600  0.00  0.00     0.001 C 
HETATM   38  C   UNL     1       1.464  15.390  24.873  0.00  0.00     0.002 C 
HETATM   39  C   UNL     1       0.807  16.054  23.838  0.00  0.00     0.031 C 
ENDBRANCH  27  33
ENDBRANCH   1  26
BRANCH   6  40
HETATM   40  O   UNL     1      -4.339  15.581  20.941  0.00  0.00    -0.360 OA
HETATM   41  H   UNL     1      -4.121  16.505  20.736  0.00  0.00     0.217 HD
ENDBRANCH   6  40
TORSDOF 8
ENDMDL
MODEL 8
REMARK VINA RESULT:    -8.720      2.960      6.159
REMARK INTER + INTRA:         -14.927
REMARK INTER:                 -11.510
REMARK INTRA:                  -3.417
REMARK UNBOUND:                -2.638
REMARK  8 active torsions:
REMARK  status: ('A' for Active; 'I' for Inactive)
REMARK    1  A    between atoms: C_7  and  N_8 
REMARK    2  A    between atoms: C_14  and  C_15 
REMARK    3  A    between atoms: C_17  and  C_18 
REMARK       I    between atoms: C_18  and  N_20 
REMARK    4  A    between atoms: N_20  and  C_22 
REMARK    5  A    between atoms: C_22  and  C_23 
REMARK    6  A    between atoms: C_28  and  C_29 
REMARK    7  A    between atoms: C_35  and  O_36 
REMARK    8  A    between atoms: C_38  and  O_39 
ROOT
HETATM    1  C   UNL     1      -0.370  15.695  20.756  0.00  0.00     0.046 C 
HETATM    2  C   UNL     1      -1.160  14.686  21.345  0.00  0.00     0.038 C 
HETATM    3  C   UNL     1      -2.560  14.696  21.327  0.00  0.00     0.066 C 
HETATM    4  C   UNL     1      -3.192  15.784  20.722  0.00  0.00     0.084 C 
HETATM    5  C   UNL     1      -2.445  16.778  20.090  0.00  0.00     0.075 C 
HETATM    6  C   UNL     1      -1.046  16.689  20.050  0.00  0.00     0.082 C 
ENDROOT
BRANCH   3   7
HETATM    7  C   UNL     1      -3.353  13.497  21.746  0.00  0.00     0.256 C 
HETATM    8  O   UNL     1      -3.800  12.796  20.835  0.00  0.00    -0.267 OA
HETATM    9  N   UNL     1      -3.528  13.166  23.095  0.00  0.00    -0.348 N 
HETATM   10  C   UNL     1      -3.978  11.817  23.417  0.00  0.00     0.153 C 
BRANCH   9  11
HETATM   11  C   UNL     1      -3.661  14.176  24.147  0.00  0.00     0.165 C 
BRANCH  11  12
HETATM   12  C   UNL     1      -2.392  14.605  24.874  0.00  0.00    -0.029 A 
HETATM   13  C   UNL     1      -1.676  15.740  24.423  0.00  0.00     0.010 A 
HETATM   14  C   UNL     1      -0.441  16.093  24.960  0.00  0.00     0.001 A 
HETATM   15  C   UNL     1       0.103  15.328  25.974  0.00  0.00     0.001 A 
HETATM   16  C   UNL     1      -0.616  14.246  26.488  0.00  0.00     0.013 A 
HETATM   17  C   UNL     1      -1.875  13.855  25.971  0.00  0.00    -0.017 A 
BRANCH  17  18
HETATM   18  C   UNL     1      -2.550  12.663  26.561  0.00  0.00    -0.008 A 
HETATM   19  C   UNL     1      -1.928  11.404  26.583  0.00  0.00     0.015 A 
HETATM   20  C   UNL     1      -2.601  10.275  27.053  0.00  0.00     0.020 A 
HETATM   21  C   UNL     1      -3.906  10.419  27.483  0.00  0.00     0.116 A 
HETATM   22  N   UNL     1      -4.527  11.610  27.557  0.00  0.00    -0.272 NA
HETATM   23  C   UNL     1      -3.821  12.690  27.139  0.00  0.00     0.128 A 
ENDBRANCH  17  18
ENDBRANCH  11  12
ENDBRANCH   9  11
ENDBRANCH   3   7
BRANCH   4  24
HETATM   24  O   UNL     1      -4.554  15.910  20.646  0.00  0.00    -0.360 OA
HETATM   25  H   UNL     1      -4.803  16.742  21.107  0.00  0.00     0.217 HD
ENDBRANCH   4  24
BRANCH   1  26
HETATM   26  C   UNL     1       1.109  15.492  20.893  0.00  0.00     0.172 A 
HETATM   27  N   UNL     1       1.782  14.415  21.423  0.00  0.00    -0.244 N 
HETATM   28  C   UNL     1       3.122  14.757  21.395  0.00  0.00     0.349 A 
HETATM   29  O   UNL     1       4.096  14.143  21.805  0.00  0.00    -0.245 OA
HETATM   30  N   UNL     1       3.171  15.990  20.762  0.00  0.00    -0.226 N 
HETATM   31  H   UNL     1       4.001  16.528  20.563  0.00  0.00     0.194 HD
HETATM   32  N   UNL     1       1.922  16.434  20.474  0.00  0.00    -0.151 NA
BRANCH  27  33
HETATM   33  C   UNL     1       1.313  13.229  22.004  0.00  0.00     0.051 C 
HETATM   34  C   UNL     1       0.755  12.182  21.249  0.00  0.00    -0.035 C 
HETATM   35  C   UNL     1       0.973  12.068  19.766  0.00  0.00     0.050 C 
HETATM   36  C   UNL     1       0.074  11.157  21.926  0.00  0.00     0.009 C 
HETATM   37  C   UNL     1       0.016  11.137  23.320  0.00  0.00     0.001 C 
HETATM   38  C   UNL     1       0.696  12.093  24.065  0.00  0.00     0.002 C 
HETATM   39  C   UNL     1       1.343  13.139  23.407  0.00  0.00     0.031 C 
ENDBRANCH  27  33
ENDBRANCH   1  26
BRANCH   6  40
HETATM   40  O   UNL     1      -0.386  17.516  19.194  0.00  0.00    -0.360 OA
HETATM   41  H   UNL     1      -0.967  18.236  18.899  0.00  0.00     0.217 HD
ENDBRANCH   6  40
TORSDOF 8
ENDMDL
MODEL 9
REMARK VINA RESULT:    -8.596      2.327      7.399
REMARK INTER + INTRA:         -14.752
REMARK INTER:                 -12.113
REMARK INTRA:                  -2.638
REMARK UNBOUND:                -2.638
REMARK  8 active torsions:
REMARK  status: ('A' for Active; 'I' for Inactive)
REMARK    1  A    between atoms: C_7  and  N_8 
REMARK    2  A    between atoms: C_14  and  C_15 
REMARK    3  A    between atoms: C_17  and  C_18 
REMARK       I    between atoms: C_18  and  N_20 
REMARK    4  A    between atoms: N_20  and  C_22 
REMARK    5  A    between atoms: C_22  and  C_23 
REMARK    6  A    between atoms: C_28  and  C_29 
REMARK    7  A    between atoms: C_35  and  O_36 
REMARK    8  A    between atoms: C_38  and  O_39 
ROOT
HETATM    1  C   UNL     1      -1.636  15.239  21.282  0.00  0.00     0.046 C 
HETATM    2  C   UNL     1      -1.313  13.914  21.643  0.00  0.00     0.038 C 
HETATM    3  C   UNL     1      -2.248  13.006  22.152  0.00  0.00     0.066 C 
HETATM    4  C   UNL     1      -3.555  13.459  22.341  0.00  0.00     0.084 C 
HETATM    5  C   UNL     1      -3.923  14.749  21.955  0.00  0.00     0.075 C 
HETATM    6  C   UNL     1      -2.980  15.602  21.364  0.00  0.00     0.082 C 
ENDROOT
BRANCH   3   7
HETATM    7  C   UNL     1      -1.924  11.551  22.294  0.00  0.00     0.256 C 
HETATM    8  O   UNL     1      -2.626  10.773  21.644  0.00  0.00    -0.267 OA
HETATM    9  N   UNL     1      -0.851  11.110  23.077  0.00  0.00    -0.348 N 
HETATM   10  C   UNL     1      -0.371   9.748  22.877  0.00  0.00     0.153 C 
BRANCH   9  11
HETATM   11  C   UNL     1      -0.450  11.777  24.319  0.00  0.00     0.165 C 
BRANCH  11  12
HETATM   12  C   UNL     1      -1.319  11.552  25.549  0.00  0.00    -0.029 A 
HETATM   13  C   UNL     1      -2.337  12.482  25.868  0.00  0.00     0.010 A 
HETATM   14  C   UNL     1      -3.066  12.402  27.051  0.00  0.00     0.001 A 
HETATM   15  C   UNL     1      -2.805  11.376  27.941  0.00  0.00     0.001 A 
HETATM   16  C   UNL     1      -1.857  10.402  27.617  0.00  0.00     0.013 A 
HETATM   17  C   UNL     1      -1.097  10.448  26.424  0.00  0.00    -0.017 A 
BRANCH  17  18
HETATM   18  C   UNL     1      -0.082   9.382  26.184  0.00  0.00    -0.008 A 
HETATM   19  C   UNL     1       1.295   9.654  26.239  0.00  0.00     0.015 A 
HETATM   20  C   UNL     1       2.237   8.674  25.924  0.00  0.00     0.020 A 
HETATM   21  C   UNL     1       1.784   7.428  25.536  0.00  0.00     0.116 A 
HETATM   22  N   UNL     1       0.484   7.085  25.538  0.00  0.00    -0.272 NA
HETATM   23  C   UNL     1      -0.398   8.051  25.900  0.00  0.00     0.128 A 
ENDBRANCH  17  18
ENDBRANCH  11  12
ENDBRANCH   9  11
ENDBRANCH   3   7
BRANCH   4  24
HETATM   24  O   UNL     1      -4.557  12.667  22.837  0.00  0.00    -0.360 OA
HETATM   25  H   UNL     1      -4.914  13.107  23.641  0.00  0.00     0.217 HD
ENDBRANCH   4  24
BRANCH   1  26
HETATM   26  C   UNL     1      -0.485  16.045  20.761  0.00  0.00     0.172 A 
HETATM   27  N   UNL     1       0.797  16.129  21.254  0.00  0.00    -0.244 N 
HETATM   28  C   UNL     1       1.443  17.068  20.471  0.00  0.00     0.349 A 
HETATM   29  O   UNL     1       2.577  17.516  20.557  0.00  0.00    -0.245 OA
HETATM   30  N   UNL     1       0.524  17.422  19.494  0.00  0.00    -0.226 N 
HETATM   31  H   UNL     1       0.671  18.082  18.744  0.00  0.00     0.194 HD
HETATM   32  N   UNL     1      -0.662  16.795  19.697  0.00  0.00    -0.151 NA
BRANCH  27  33
HETATM   33  C   UNL     1       1.396  15.532  22.373  0.00  0.00     0.051 C 
HETATM   34  C   UNL     1       2.303  14.463  22.269  0.00  0.00    -0.035 C 
HETATM   35  C   UNL     1       3.003  14.136  20.978  0.00  0.00     0.050 C 
HETATM   36  C   UNL     1       2.645  13.758  23.435  0.00  0.00     0.009 C 
HETATM   37  C   UNL     1       2.155  14.156  24.680  0.00  0.00     0.001 C 
HETATM   38  C   UNL     1       1.379  15.303  24.795  0.00  0.00     0.002 C 
HETATM   39  C   UNL     1       0.999  15.991  23.642  0.00  0.00     0.031 C 
ENDBRANCH  27  33
ENDBRANCH   1  26
BRANCH   6  40
HETATM   40  O   UNL     1      -3.443  16.728  20.754  0.00  0.00    -0.360 OA
HETATM   41  H   UNL     1      -3.831  17.333  21.406  0.00  0.00     0.217 HD
ENDBRANCH   6  40
TORSDOF 8
ENDMDL
