MODEL 1
REMARK VINA RESULT:    -8.034      0.000      0.000
REMARK INTER + INTRA:         -12.198
REMARK INTER:                 -10.674
REMARK INTRA:                  -1.524
REMARK UNBOUND:                -1.346
REMARK  7 active torsions:
REMARK  status: ('A' for Active; 'I' for Inactive)
REMARK    1  A    between atoms: C_7  and  N_8 
REMARK    2  A    between atoms: C_14  and  C_15 
REMARK    3  A    between atoms: C_16  and  O_17 
REMARK    4  A    between atoms: C_19  and  O_20 
REMARK    5  A    between atoms: C_22  and  C_23 
REMARK       I    between atoms: C_23  and  N_25 
REMARK    6  A    between atoms: N_25  and  C_27 
REMARK    7  A    between atoms: C_27  and  C_28 
ROOT
HETATM    1  C   UNL     1      -2.436  14.409  23.316  0.00  0.00     0.046 C 
HETATM    2  C   UNL     1      -3.092  14.720  22.100  0.00  0.00     0.082 C 
HETATM    3  C   UNL     1      -2.486  15.478  21.104  0.00  0.00     0.075 C 
HETATM    4  C   UNL     1      -1.174  15.904  21.267  0.00  0.00     0.084 C 
HETATM    5  C   UNL     1      -1.172  14.998  23.529  0.00  0.00     0.038 C 
HETATM    6  C   UNL     1      -0.467  15.638  22.459  0.00  0.00     0.066 C 
ENDROOT
BRANCH   1   7
HETATM    7  C   UNL     1      -3.129  13.418  24.216  0.00  0.00     0.172 A 
HETATM    8  N   UNL     1      -2.843  12.093  24.540  0.00  0.00    -0.244 N 
HETATM    9  C   UNL     1      -3.947  11.685  25.296  0.00  0.00     0.349 A 
HETATM   10  O   UNL     1      -4.281  10.588  25.709  0.00  0.00    -0.245 OA
HETATM   11  N   UNL     1      -4.740  12.802  25.453  0.00  0.00    -0.226 N 
HETATM   12  H   UNL     1      -5.668  12.787  25.859  0.00  0.00     0.194 HD
HETATM   13  N   UNL     1      -4.249  13.845  24.768  0.00  0.00    -0.151 NA
BRANCH   8  14
HETATM   14  C   UNL     1      -1.773  11.179  24.261  0.00  0.00     0.051 C 
HETATM   15  C   UNL     1      -1.151  10.999  23.018  0.00  0.00    -0.035 C 
HETATM   16  C   UNL     1      -1.882  11.163  21.713  0.00  0.00     0.050 C 
HETATM   17  C   UNL     1       0.095  10.336  22.931  0.00  0.00     0.009 C 
HETATM   18  C   UNL     1       0.576   9.577  23.990  0.00  0.00     0.001 C 
HETATM   19  C   UNL     1      -0.173   9.506  25.149  0.00  0.00     0.002 C 
HETATM   20  C   UNL     1      -1.291  10.336  25.297  0.00  0.00     0.031 C 
ENDBRANCH   8  14
ENDBRANCH   1   7
BRANCH   2  21
HETATM   21  O   UNL     1      -4.353  14.283  21.769  0.00  0.00    -0.360 OA
HETATM   22  H   UNL     1      -4.884  15.062  21.494  0.00  0.00     0.217 HD
ENDBRANCH   2  21
BRANCH   6  23
HETATM   23  C   UNL     1       1.061  15.593  22.362  0.00  0.00     0.256 C 
HETATM   24  O   UNL     1       1.679  16.578  22.795  0.00  0.00    -0.267 OA
HETATM   25  N   UNL     1       1.769  14.604  21.661  0.00  0.00    -0.352 N 
HETATM   26  C   UNL     1       1.184  13.390  21.131  0.00  0.00     0.152 C 
BRANCH  25  27
HETATM   27  C   UNL     1       3.130  14.925  21.183  0.00  0.00     0.125 C 
BRANCH  27  28
HETATM   28  C   UNL     1       4.325  14.429  22.012  0.00  0.00     0.015 C 
HETATM   29  C   UNL     1       5.699  14.793  21.474  0.00  0.00     0.006 C 
ENDBRANCH  27  28
ENDBRANCH  25  27
ENDBRANCH   6  23
BRANCH   4  30
HETATM   30  O   UNL     1      -0.596  16.579  20.225  0.00  0.00    -0.360 OA
HETATM   31  H   UNL     1      -0.667  16.042  19.417  0.00  0.00     0.217 HD
ENDBRANCH   4  30
TORSDOF 7
ENDMDL
MODEL 2
REMARK VINA RESULT:    -7.909      3.021      5.788
REMARK INTER + INTRA:         -12.030
REMARK INTER:                 -10.003
REMARK INTRA:                  -2.026
REMARK UNBOUND:                -1.346
REMARK  7 active torsions:
REMARK  status: ('A' for Active; 'I' for Inactive)
REMARK    1  A    between atoms: C_7  and  N_8 
REMARK    2  A    between atoms: C_14  and  C_15 
REMARK    3  A    between atoms: C_16  and  O_17 
REMARK    4  A    between atoms: C_19  and  O_20 
REMARK    5  A    between atoms: C_22  and  C_23 
REMARK       I    between atoms: C_23  and  N_25 
REMARK    6  A    between atoms: N_25  and  C_27 
REMARK    7  A    between atoms: C_27  and  C_28 
ROOT
HETATM    1  C   UNL     1      -2.565  13.938  25.603  0.00  0.00     0.046 C 
HETATM    2  C   UNL     1      -2.960  12.699  26.165  0.00  0.00     0.082 C 
HETATM    3  C   UNL     1      -3.837  11.837  25.516  0.00  0.00     0.075 C 
HETATM    4  C   UNL     1      -4.304  12.159  24.248  0.00  0.00     0.084 C 
HETATM    5  C   UNL     1      -3.188  14.320  24.396  0.00  0.00     0.038 C 
HETATM    6  C   UNL     1      -3.959  13.382  23.636  0.00  0.00     0.066 C 
ENDROOT
BRANCH   1   7
HETATM    7  C   UNL     1      -1.462  14.677  26.319  0.00  0.00     0.172 A 
HETATM    8  N   UNL     1      -0.161  15.003  25.941  0.00  0.00    -0.244 N 
HETATM    9  C   UNL     1       0.399  15.547  27.101  0.00  0.00     0.349 A 
HETATM   10  O   UNL     1       1.545  15.864  27.372  0.00  0.00    -0.245 OA
HETATM   11  N   UNL     1      -0.617  15.602  28.031  0.00  0.00    -0.226 N 
HETATM   12  H   UNL     1      -0.483  15.844  29.005  0.00  0.00     0.194 HD
HETATM   13  N   UNL     1      -1.739  15.042  27.555  0.00  0.00    -0.151 NA
BRANCH   8  14
HETATM   14  C   UNL     1       0.618  14.882  24.742  0.00  0.00     0.051 C 
HETATM   15  C   UNL     1       0.620  15.784  23.671  0.00  0.00    -0.035 C 
HETATM   16  C   UNL     1      -0.595  16.578  23.275  0.00  0.00     0.050 C 
HETATM   17  C   UNL     1       1.657  15.751  22.709  0.00  0.00     0.009 C 
HETATM   18  C   UNL     1       2.501  14.653  22.607  0.00  0.00     0.001 C 
HETATM   19  C   UNL     1       2.332  13.602  23.488  0.00  0.00     0.002 C 
HETATM   20  C   UNL     1       1.448  13.743  24.565  0.00  0.00     0.031 C 
ENDBRANCH   8  14
ENDBRANCH   1   7
BRANCH   2  21
HETATM   21  O   UNL     1      -2.500  12.215  27.367  0.00  0.00    -0.360 OA
HETATM   22  H   UNL     1      -2.975  12.683  28.087  0.00  0.00     0.217 HD
ENDBRANCH   2  21
BRANCH   6  23
HETATM   23  C   UNL     1      -3.992  13.424  22.105  0.00  0.00     0.256 C 
HETATM   24  O   UNL     1      -3.301  12.585  21.506  0.00  0.00    -0.267 OA
HETATM   25  N   UNL     1      -4.601  14.451  21.366  0.00  0.00    -0.352 N 
HETATM   26  C   UNL     1      -5.458  15.474  21.928  0.00  0.00     0.152 C 
BRANCH  25  27
HETATM   27  C   UNL     1      -4.137  14.687  19.984  0.00  0.00     0.125 C 
BRANCH  27  28
HETATM   28  C   UNL     1      -3.672  16.103  19.608  0.00  0.00     0.015 C 
HETATM   29  C   UNL     1      -2.308  16.514  20.139  0.00  0.00     0.006 C 
ENDBRANCH  27  28
ENDBRANCH  25  27
ENDBRANCH   6  23
BRANCH   4  30
HETATM   30  O   UNL     1      -5.101  11.241  23.618  0.00  0.00    -0.360 OA
HETATM   31  H   UNL     1      -4.550  10.508  23.294  0.00  0.00     0.217 HD
ENDBRANCH   4  30
TORSDOF 7
ENDMDL
MODEL 3
REMARK VINA RESULT:    -7.786      2.314      3.990
REMARK INTER + INTRA:         -11.863
REMARK INTER:                 -10.047
REMARK INTRA:                  -1.815
REMARK UNBOUND:                -1.346
REMARK  7 active torsions:
REMARK  status: ('A' for Active; 'I' for Inactive)
REMARK    1  A    between atoms: C_7  and  N_8 
REMARK    2  A    between atoms: C_14  and  C_15 
REMARK    3  A    between atoms: C_16  and  O_17 
REMARK    4  A    between atoms: C_19  and  O_20 
REMARK    5  A    between atoms: C_22  and  C_23 
REMARK       I    between atoms: C_23  and  N_25 
REMARK    6  A    between atoms: N_25  and  C_27 
REMARK    7  A    between atoms: C_27  and  C_28 
ROOT
HETATM    1  C   UNL     1      -1.555  13.188  25.442  0.00  0.00     0.046 C 
HETATM    2  C   UNL     1      -1.780  13.939  26.621  0.00  0.00     0.082 C 
HETATM    3  C   UNL     1      -0.907  14.937  27.042  0.00  0.00     0.075 C 
HETATM    4  C   UNL     1       0.196  15.258  26.261  0.00  0.00     0.084 C 
HETATM    5  C   UNL     1      -0.341  13.415  24.760  0.00  0.00     0.038 C 
HETATM    6  C   UNL     1       0.484  14.542  25.080  0.00  0.00     0.066 C 
ENDROOT
BRANCH   1   7
HETATM    7  C   UNL     1      -2.677  12.282  25.001  0.00  0.00     0.172 A 
HETATM    8  N   UNL     1      -3.540  12.331  23.907  0.00  0.00    -0.244 N 
HETATM    9  C   UNL     1      -4.451  11.298  24.151  0.00  0.00     0.349 A 
HETATM   10  O   UNL     1      -5.490  10.990  23.592  0.00  0.00    -0.245 OA
HETATM   11  N   UNL     1      -4.011  10.657  25.290  0.00  0.00    -0.226 N 
HETATM   12  H   UNL     1      -4.535   9.940  25.777  0.00  0.00     0.194 HD
HETATM   13  N   UNL     1      -2.948  11.282  25.817  0.00  0.00    -0.151 NA
BRANCH   8  14
HETATM   14  C   UNL     1      -3.663  13.151  22.736  0.00  0.00     0.051 C 
HETATM   15  C   UNL     1      -3.076  12.896  21.490  0.00  0.00    -0.035 C 
HETATM   16  C   UNL     1      -1.753  12.193  21.345  0.00  0.00     0.050 C 
HETATM   17  C   UNL     1      -3.529  13.572  20.333  0.00  0.00     0.009 C 
HETATM   18  C   UNL     1      -4.318  14.710  20.434  0.00  0.00     0.001 C 
HETATM   19  C   UNL     1      -4.682  15.156  21.691  0.00  0.00     0.002 C 
HETATM   20  C   UNL     1      -4.407  14.358  22.809  0.00  0.00     0.031 C 
ENDBRANCH   8  14
ENDBRANCH   1   7
BRANCH   2  21
HETATM   21  O   UNL     1      -2.878  13.789  27.435  0.00  0.00    -0.360 OA
HETATM   22  H   UNL     1      -3.667  14.109  26.946  0.00  0.00     0.217 HD
ENDBRANCH   2  21
BRANCH   6  23
HETATM   23  C   UNL     1       1.297  15.273  24.007  0.00  0.00     0.256 C 
HETATM   24  O   UNL     1       0.753  16.241  23.455  0.00  0.00    -0.267 OA
HETATM   25  N   UNL     1       2.519  14.803  23.501  0.00  0.00    -0.352 N 
HETATM   26  C   UNL     1       3.279  13.706  24.064  0.00  0.00     0.152 C 
BRANCH  25  27
HETATM   27  C   UNL     1       2.938  15.253  22.157  0.00  0.00     0.125 C 
BRANCH  27  28
HETATM   28  C   UNL     1       4.005  14.431  21.418  0.00  0.00     0.015 C 
HETATM   29  C   UNL     1       5.409  15.016  21.421  0.00  0.00     0.006 C 
ENDBRANCH  27  28
ENDBRANCH  25  27
ENDBRANCH   6  23
BRANCH   4  30
HETATM   30  O   UNL     1       0.981  16.301  26.677  0.00  0.00    -0.360 OA
HETATM   31  H   UNL     1       0.476  16.853  27.299  0.00  0.00     0.217 HD
ENDBRANCH   4  30
TORSDOF 7
ENDMDL
MODEL 4
REMARK VINA RESULT:    -7.608      3.204      6.285
REMARK INTER + INTRA:         -11.622
REMARK INTER:                  -9.861
REMARK INTRA:                  -1.761
REMARK UNBOUND:                -1.346
REMARK  7 active torsions:
REMARK  status: ('A' for Active; 'I' for Inactive)
REMARK    1  A    between atoms: C_7  and  N_8 
REMARK    2  A    between atoms: C_14  and  C_15 
REMARK    3  A    between atoms: C_16  and  O_17 
REMARK    4  A    between atoms: C_19  and  O_20 
REMARK    5  A    between atoms: C_22  and  C_23 
REMARK       I    between atoms: C_23  and  N_25 
REMARK    6  A    between atoms: N_25  and  C_27 
REMARK    7  A    between atoms: C_27  and  C_28 
ROOT
HETATM    1  C   UNL     1      -1.078  10.352  23.810  0.00  0.00     0.046 C 
HETATM    2  C   UNL     1      -1.682  10.567  25.073  0.00  0.00     0.082 C 
HETATM    3  C   UNL     1      -1.232   9.935  26.227  0.00  0.00     0.075 C 
HETATM    4  C   UNL     1      -0.118   9.107  26.166  0.00  0.00     0.084 C 
HETATM    5  C   UNL     1      -0.061   9.377  23.745  0.00  0.00     0.038 C 
HETATM    6  C   UNL     1       0.524   8.842  24.938  0.00  0.00     0.066 C 
ENDROOT
BRANCH   1   7
HETATM    7  C   UNL     1      -1.537  11.249  22.688  0.00  0.00     0.172 A 
HETATM    8  N   UNL     1      -0.980  12.396  22.123  0.00  0.00    -0.244 N 
HETATM    9  C   UNL     1      -1.962  12.843  21.234  0.00  0.00     0.349 A 
HETATM   10  O   UNL     1      -2.057  13.874  20.589  0.00  0.00    -0.245 OA
HETATM   11  N   UNL     1      -2.963  11.895  21.255  0.00  0.00    -0.226 N 
HETATM   12  H   UNL     1      -3.860  12.005  20.798  0.00  0.00     0.194 HD
HETATM   13  N   UNL     1      -2.708  10.944  22.165  0.00  0.00    -0.151 NA
BRANCH   8  14
HETATM   14  C   UNL     1       0.249  13.120  22.279  0.00  0.00     0.051 C 
HETATM   15  C   UNL     1       0.735  13.663  23.476  0.00  0.00    -0.035 C 
HETATM   16  C   UNL     1      -0.171  14.182  24.559  0.00  0.00     0.050 C 
HETATM   17  C   UNL     1       2.090  14.053  23.586  0.00  0.00     0.009 C 
HETATM   18  C   UNL     1       2.881  14.213  22.457  0.00  0.00     0.001 C 
HETATM   19  C   UNL     1       2.329  13.954  21.217  0.00  0.00     0.002 C 
HETATM   20  C   UNL     1       1.060  13.365  21.140  0.00  0.00     0.031 C 
ENDBRANCH   8  14
ENDBRANCH   1   7
BRANCH   2  21
HETATM   21  O   UNL     1      -2.730  11.431  25.291  0.00  0.00    -0.360 OA
HETATM   22  H   UNL     1      -2.717  12.111  24.584  0.00  0.00     0.217 HD
ENDBRANCH   2  21
BRANCH   6  23
HETATM   23  C   UNL     1       2.003   8.448  25.000  0.00  0.00     0.256 C 
HETATM   24  O   UNL     1       2.793   9.303  25.429  0.00  0.00    -0.267 OA
HETATM   25  N   UNL     1       2.520   7.269  24.440  0.00  0.00    -0.352 N 
HETATM   26  C   UNL     1       1.718   6.176  23.932  0.00  0.00     0.152 C 
BRANCH  25  27
HETATM   27  C   UNL     1       3.953   7.235  24.083  0.00  0.00     0.125 C 
BRANCH  27  28
HETATM   28  C   UNL     1       4.329   7.244  22.593  0.00  0.00     0.015 C 
HETATM   29  C   UNL     1       5.817   7.321  22.286  0.00  0.00     0.006 C 
ENDBRANCH  27  28
ENDBRANCH  25  27
ENDBRANCH   6  23
BRANCH   4  30
HETATM   30  O   UNL     1       0.334   8.571  27.342  0.00  0.00    -0.360 OA
HETATM   31  H   UNL     1      -0.042   9.070  28.087  0.00  0.00     0.217 HD
ENDBRANCH   4  30
TORSDOF 7
ENDMDL
MODEL 5
REMARK VINA RESULT:    -7.578      2.711      6.838
REMARK INTER + INTRA:         -11.582
REMARK INTER:                 -10.520
REMARK INTRA:                  -1.063
REMARK UNBOUND:                -1.346
REMARK  7 active torsions:
REMARK  status: ('A' for Active; 'I' for Inactive)
REMARK    1  A    between atoms: C_7  and  N_8 
REMARK    2  A    between atoms: C_14  and  C_15 
REMARK    3  A    between atoms: C_16  and  O_17 
REMARK    4  A    between atoms: C_19  and  O_20 
REMARK    5  A    between atoms: C_22  and  C_23 
REMARK       I    between atoms: C_23  and  N_25 
REMARK    6  A    between atoms: N_25  and  C_27 
REMARK    7  A    between atoms: C_27  and  C_28 
ROOT
HETATM    1  C   UNL     1      -2.304  13.147  24.628  0.00  0.00     0.046 C 
HETATM    2  C   UNL     1      -3.712  13.281  24.714  0.00  0.00     0.082 C 
HETATM    3  C   UNL     1      -4.505  12.353  25.380  0.00  0.00     0.075 C 
HETATM    4  C   UNL     1      -3.907  11.286  26.038  0.00  0.00     0.084 C 
HETATM    5  C   UNL     1      -1.741  11.966  25.154  0.00  0.00     0.038 C 
HETATM    6  C   UNL     1      -2.512  11.088  25.983  0.00  0.00     0.066 C 
ENDROOT
BRANCH   1   7
HETATM    7  C   UNL     1      -1.554  14.322  24.052  0.00  0.00     0.172 A 
HETATM    8  N   UNL     1      -1.617  14.950  22.809  0.00  0.00    -0.244 N 
HETATM    9  C   UNL     1      -0.563  15.868  22.843  0.00  0.00     0.349 A 
HETATM   10  O   UNL     1      -0.078  16.573  21.973  0.00  0.00    -0.245 OA
HETATM   11  N   UNL     1      -0.029  15.796  24.112  0.00  0.00    -0.226 N 
HETATM   12  H   UNL     1       0.823  16.263  24.397  0.00  0.00     0.194 HD
HETATM   13  N   UNL     1      -0.620  14.831  24.831  0.00  0.00    -0.151 NA
BRANCH   8  14
HETATM   14  C   UNL     1      -2.444  14.831  21.643  0.00  0.00     0.051 C 
HETATM   15  C   UNL     1      -2.809  13.633  21.014  0.00  0.00    -0.035 C 
HETATM   16  C   UNL     1      -1.915  12.424  20.990  0.00  0.00     0.050 C 
HETATM   17  C   UNL     1      -3.884  13.606  20.095  0.00  0.00     0.009 C 
HETATM   18  C   UNL     1      -4.388  14.780  19.550  0.00  0.00     0.001 C 
HETATM   19  C   UNL     1      -3.840  15.984  19.948  0.00  0.00     0.002 C 
HETATM   20  C   UNL     1      -2.930  16.007  21.013  0.00  0.00     0.031 C 
ENDBRANCH   8  14
ENDBRANCH   1   7
BRANCH   2  21
HETATM   21  O   UNL     1      -4.421  14.337  24.190  0.00  0.00    -0.360 OA
HETATM   22  H   UNL     1      -3.819  15.111  24.134  0.00  0.00     0.217 HD
ENDBRANCH   2  21
BRANCH   6  23
HETATM   23  C   UNL     1      -1.876  10.312  27.140  0.00  0.00     0.256 C 
HETATM   24  O   UNL     1      -2.164  10.683  28.289  0.00  0.00    -0.267 OA
HETATM   25  N   UNL     1      -0.868   9.349  26.973  0.00  0.00    -0.352 N 
HETATM   26  C   UNL     1      -0.453   8.802  25.698  0.00  0.00     0.152 C 
BRANCH  25  27
HETATM   27  C   UNL     1       0.024   9.065  28.116  0.00  0.00     0.125 C 
BRANCH  27  28
HETATM   28  C   UNL     1      -0.246   7.802  28.949  0.00  0.00     0.015 C 
HETATM   29  C   UNL     1      -0.612   8.038  30.406  0.00  0.00     0.006 C 
ENDBRANCH  27  28
ENDBRANCH  25  27
ENDBRANCH   6  23
BRANCH   4  30
HETATM   30  O   UNL     1      -4.724  10.445  26.746  0.00  0.00    -0.360 OA
HETATM   31  H   UNL     1      -5.614  10.459  26.355  0.00  0.00     0.217 HD
ENDBRANCH   4  30
TORSDOF 7
ENDMDL
MODEL 6
REMARK VINA RESULT:    -7.514      2.496      5.739
REMARK INTER + INTRA:         -11.496
REMARK INTER:                  -9.844
REMARK INTRA:                  -1.651
REMARK UNBOUND:                -1.346
REMARK  7 active torsions:
REMARK  status: ('A' for Active; 'I' for Inactive)
REMARK    1  A    between atoms: C_7  and  N_8 
REMARK    2  A    between atoms: C_14  and  C_15 
REMARK    3  A    between atoms: C_16  and  O_17 
REMARK    4  A    between atoms: C_19  and  O_20 
REMARK    5  A    between atoms: C_22  and  C_23 
REMARK       I    between atoms: C_23  and  N_25 
REMARK    6  A    between atoms: N_25  and  C_27 
REMARK    7  A    between atoms: C_27  and  C_28 
ROOT
HETATM    1  C   UNL     1      -3.068  11.943  24.058  0.00  0.00     0.046 C 
HETATM    2  C   UNL     1      -3.712  12.014  25.318  0.00  0.00     0.082 C 
HETATM    3  C   UNL     1      -3.261  11.298  26.422  0.00  0.00     0.075 C 
HETATM    4  C   UNL     1      -2.109  10.529  26.317  0.00  0.00     0.084 C 
HETATM    5  C   UNL     1      -2.007  11.022  23.933  0.00  0.00     0.038 C 
HETATM    6  C   UNL     1      -1.426  10.406  25.089  0.00  0.00     0.066 C 
ENDROOT
BRANCH   1   7
HETATM    7  C   UNL     1      -3.540  12.918  23.010  0.00  0.00     0.172 A 
HETATM    8  N   UNL     1      -2.903  13.978  22.368  0.00  0.00    -0.244 N 
HETATM    9  C   UNL     1      -3.921  14.584  21.626  0.00  0.00     0.349 A 
HETATM   10  O   UNL     1      -3.950  15.629  20.997  0.00  0.00    -0.245 OA
HETATM   11  N   UNL     1      -5.041  13.797  21.793  0.00  0.00    -0.226 N 
HETATM   12  H   UNL     1      -5.966  14.049  21.468  0.00  0.00     0.194 HD
HETATM   13  N   UNL     1      -4.807  12.802  22.661  0.00  0.00    -0.151 NA
BRANCH   8  14
HETATM   14  C   UNL     1      -1.569  14.507  22.344  0.00  0.00     0.051 C 
HETATM   15  C   UNL     1      -0.516  14.042  21.546  0.00  0.00    -0.035 C 
HETATM   16  C   UNL     1      -0.376  12.598  21.147  0.00  0.00     0.050 C 
HETATM   17  C   UNL     1       0.640  14.834  21.352  0.00  0.00     0.009 C 
HETATM   18  C   UNL     1       0.908  15.919  22.177  0.00  0.00     0.001 C 
HETATM   19  C   UNL     1       0.007  16.232  23.176  0.00  0.00     0.002 C 
HETATM   20  C   UNL     1      -1.229  15.575  23.217  0.00  0.00     0.031 C 
ENDBRANCH   8  14
ENDBRANCH   1   7
BRANCH   2  21
HETATM   21  O   UNL     1      -4.802  12.808  25.585  0.00  0.00    -0.360 OA
HETATM   22  H   UNL     1      -5.475  12.259  26.042  0.00  0.00     0.217 HD
ENDBRANCH   2  21
BRANCH   6  23
HETATM   23  C   UNL     1       0.067  10.072  25.156  0.00  0.00     0.256 C 
HETATM   24  O   UNL     1       0.858  11.026  25.102  0.00  0.00    -0.267 OA
HETATM   25  N   UNL     1       0.578   8.765  25.092  0.00  0.00    -0.352 N 
HETATM   26  C   UNL     1      -0.223   7.562  25.176  0.00  0.00     0.152 C 
BRANCH  25  27
HETATM   27  C   UNL     1       1.970   8.581  24.634  0.00  0.00     0.125 C 
BRANCH  27  28
HETATM   28  C   UNL     1       2.277   7.399  23.702  0.00  0.00     0.015 C 
HETATM   29  C   UNL     1       3.734   7.236  23.298  0.00  0.00     0.006 C 
ENDBRANCH  27  28
ENDBRANCH  25  27
ENDBRANCH   6  23
BRANCH   4  30
HETATM   30  O   UNL     1      -1.661   9.907  27.452  0.00  0.00    -0.360 OA
HETATM   31  H   UNL     1      -1.182   9.097  27.206  0.00  0.00     0.217 HD
ENDBRANCH   4  30
TORSDOF 7
ENDMDL
MODEL 7
REMARK VINA RESULT:    -7.472      2.304      5.658
REMARK INTER + INTRA:         -11.439
REMARK INTER:                  -9.458
REMARK INTRA:                  -1.981
REMARK UNBOUND:                -1.346
REMARK  7 active torsions:
REMARK  status: ('A' for Active; 'I' for Inactive)
REMARK    1  A    between atoms: C_7  and  N_8 
REMARK    2  A    between atoms: C_14  and  C_15 
REMARK    3  A    between atoms: C_16  and  O_17 
REMARK    4  A    between atoms: C_19  and  O_20 
REMARK    5  A    between atoms: C_22  and  C_23 
REMARK       I    between atoms: C_23  and  N_25 
REMARK    6  A    between atoms: N_25  and  C_27 
REMARK    7  A    between atoms: C_27  and  C_28 
ROOT
HETATM    1  C   UNL     1      -2.954  11.932  23.865  0.00  0.00     0.046 C 
HETATM    2  C   UNL     1      -3.539  12.448  25.048  0.00  0.00     0.082 C 
HETATM    3  C   UNL     1      -3.329  11.866  26.293  0.00  0.00     0.075 C 
HETATM    4  C   UNL     1      -2.474  10.778  26.407  0.00  0.00     0.084 C 
HETATM    5  C   UNL     1      -2.231  10.726  23.983  0.00  0.00     0.038 C 
HETATM    6  C   UNL     1      -1.867  10.208  25.268  0.00  0.00     0.066 C 
ENDROOT
BRANCH   1   7
HETATM    7  C   UNL     1      -3.103  12.773  22.623  0.00  0.00     0.172 A 
HETATM    8  N   UNL     1      -2.191  13.542  21.902  0.00  0.00    -0.244 N 
HETATM    9  C   UNL     1      -2.980  14.197  20.951  0.00  0.00     0.349 A 
HETATM   10  O   UNL     1      -2.719  15.090  20.163  0.00  0.00    -0.245 OA
HETATM   11  N   UNL     1      -4.258  13.701  21.103  0.00  0.00    -0.226 N 
HETATM   12  H   UNL     1      -5.071  14.073  20.629  0.00  0.00     0.194 HD
HETATM   13  N   UNL     1      -4.328  12.857  22.142  0.00  0.00    -0.151 NA
BRANCH   8  14
HETATM   14  C   UNL     1      -0.776  13.771  21.959  0.00  0.00     0.051 C 
HETATM   15  C   UNL     1       0.201  13.053  21.257  0.00  0.00    -0.035 C 
HETATM   16  C   UNL     1       0.050  11.595  20.918  0.00  0.00     0.050 C 
HETATM   17  C   UNL     1       1.511  13.569  21.122  0.00  0.00     0.009 C 
HETATM   18  C   UNL     1       1.954  14.610  21.927  0.00  0.00     0.001 C 
HETATM   19  C   UNL     1       1.079  15.158  22.846  0.00  0.00     0.002 C 
HETATM   20  C   UNL     1      -0.270  14.783  22.817  0.00  0.00     0.031 C 
ENDBRANCH   8  14
ENDBRANCH   1   7
BRANCH   2  21
HETATM   21  O   UNL     1      -4.328  13.573  25.091  0.00  0.00    -0.360 OA
HETATM   22  H   UNL     1      -4.011  14.141  25.826  0.00  0.00     0.217 HD
ENDBRANCH   2  21
BRANCH   6  23
HETATM   23  C   UNL     1      -0.551   9.455  25.488  0.00  0.00     0.256 C 
HETATM   24  O   UNL     1      -0.628   8.334  26.013  0.00  0.00    -0.267 OA
HETATM   25  N   UNL     1       0.716  10.029  25.299  0.00  0.00    -0.352 N 
HETATM   26  C   UNL     1       0.956  11.312  24.671  0.00  0.00     0.152 C 
BRANCH  25  27
HETATM   27  C   UNL     1       1.864   9.441  26.021  0.00  0.00     0.125 C 
BRANCH  27  28
HETATM   28  C   UNL     1       2.842   8.559  25.230  0.00  0.00     0.015 C 
HETATM   29  C   UNL     1       2.288   7.929  23.962  0.00  0.00     0.006 C 
ENDBRANCH  27  28
ENDBRANCH  25  27
ENDBRANCH   6  23
BRANCH   4  30
HETATM   30  O   UNL     1      -2.238  10.291  27.665  0.00  0.00    -0.360 OA
HETATM   31  H   UNL     1      -1.329  10.516  27.930  0.00  0.00     0.217 HD
ENDBRANCH   4  30
TORSDOF 7
ENDMDL
MODEL 8
REMARK VINA RESULT:    -7.415      2.476      6.004
REMARK INTER + INTRA:         -11.362
REMARK INTER:                  -9.645
REMARK INTRA:                  -1.717
REMARK UNBOUND:                -1.346
REMARK  7 active torsions:
REMARK  status: ('A' for Active; 'I' for Inactive)
REMARK    1  A    between atoms: C_7  and  N_8 
REMARK    2  A    between atoms: C_14  and  C_15 
REMARK    3  A    between atoms: C_16  and  O_17 
REMARK    4  A    between atoms: C_19  and  O_20 
REMARK    5  A    between atoms: C_22  and  C_23 
REMARK       I    between atoms: C_23  and  N_25 
REMARK    6  A    between atoms: N_25  and  C_27 
REMARK    7  A    between atoms: C_27  and  C_28 
ROOT
HETATM    1  C   UNL     1      -2.639  11.197  24.889  0.00  0.00     0.046 C 
HETATM    2  C   UNL     1      -3.136  11.456  26.190  0.00  0.00     0.082 C 
HETATM    3  C   UNL     1      -2.611  10.839  27.320  0.00  0.00     0.075 C 
HETATM    4  C   UNL     1      -1.525   9.983  27.193  0.00  0.00     0.084 C 
HETATM    5  C   UNL     1      -1.653  10.196  24.769  0.00  0.00     0.038 C 
HETATM    6  C   UNL     1      -0.988   9.674  25.926  0.00  0.00     0.066 C 
ENDROOT
BRANCH   1   7
HETATM    7  C   UNL     1      -3.164  12.079  23.784  0.00  0.00     0.172 A 
HETATM    8  N   UNL     1      -2.540  13.018  22.964  0.00  0.00    -0.244 N 
HETATM    9  C   UNL     1      -3.596  13.603  22.258  0.00  0.00     0.349 A 
HETATM   10  O   UNL     1      -3.633  14.571  21.517  0.00  0.00    -0.245 OA
HETATM   11  N   UNL     1      -4.733  12.914  22.624  0.00  0.00    -0.226 N 
HETATM   12  H   UNL     1      -5.672  13.188  22.363  0.00  0.00     0.194 HD
HETATM   13  N   UNL     1      -4.464  12.008  23.575  0.00  0.00    -0.151 NA
BRANCH   8  14
HETATM   14  C   UNL     1      -1.189  13.452  22.749  0.00  0.00     0.051 C 
HETATM   15  C   UNL     1      -0.474  14.340  23.564  0.00  0.00    -0.035 C 
HETATM   16  C   UNL     1      -1.135  15.459  24.321  0.00  0.00     0.050 C 
HETATM   17  C   UNL     1       0.933  14.434  23.456  0.00  0.00     0.009 C 
HETATM   18  C   UNL     1       1.602  13.914  22.356  0.00  0.00     0.001 C 
HETATM   19  C   UNL     1       0.868  13.270  21.377  0.00  0.00     0.002 C 
HETATM   20  C   UNL     1      -0.487  12.997  21.602  0.00  0.00     0.031 C 
ENDBRANCH   8  14
ENDBRANCH   1   7
BRANCH   2  21
HETATM   21  O   UNL     1      -4.143  12.351  26.468  0.00  0.00    -0.360 OA
HETATM   22  H   UNL     1      -3.977  13.168  25.950  0.00  0.00     0.217 HD
ENDBRANCH   2  21
BRANCH   6  23
HETATM   23  C   UNL     1       0.482   9.245  25.882  0.00  0.00     0.256 C 
HETATM   24  O   UNL     1       1.326  10.147  25.777  0.00  0.00    -0.267 OA
HETATM   25  N   UNL     1       0.901   7.909  25.770  0.00  0.00    -0.352 N 
HETATM   26  C   UNL     1       0.033   6.758  25.904  0.00  0.00     0.152 C 
BRANCH  25  27
HETATM   27  C   UNL     1       2.242   7.642  25.211  0.00  0.00     0.125 C 
BRANCH  27  28
HETATM   28  C   UNL     1       2.391   7.579  23.683  0.00  0.00     0.015 C 
HETATM   29  C   UNL     1       3.771   7.202  23.168  0.00  0.00     0.006 C 
ENDBRANCH  27  28
ENDBRANCH  25  27
ENDBRANCH   6  23
BRANCH   4  30
HETATM   30  O   UNL     1      -0.994   9.463  28.343  0.00  0.00    -0.360 OA
HETATM   31  H   UNL     1      -0.643  10.187  28.890  0.00  0.00     0.217 HD
ENDBRANCH   4  30
TORSDOF 7
ENDMDL
MODEL 9
REMARK VINA RESULT:    -7.384      2.479      4.262
REMARK INTER + INTRA:         -11.320
REMARK INTER:                  -9.974
REMARK INTRA:                  -1.346
REMARK UNBOUND:                -1.346
REMARK  7 active torsions:
REMARK  status: ('A' for Active; 'I' for Inactive)
REMARK    1  A    between atoms: C_7  and  N_8 
REMARK    2  A    between atoms: C_14  and  C_15 
REMARK    3  A    between atoms: C_16  and  O_17 
REMARK    4  A    between atoms: C_19  and  O_20 
REMARK    5  A    between atoms: C_22  and  C_23 
REMARK       I    between atoms: C_23  and  N_25 
REMARK    6  A    between atoms: N_25  and  C_27 
REMARK    7  A    between atoms: C_27  and  C_28 
ROOT
HETATM    1  C   UNL     1      -1.107  14.144  24.582  0.00  0.00     0.046 C 
HETATM    2  C   UNL     1      -0.028  15.035  24.805  0.00  0.00     0.082 C 
HETATM    3  C   UNL     1       0.523  15.801  23.785  0.00  0.00     0.075 C 
HETATM    4  C   UNL     1      -0.027  15.746  22.511  0.00  0.00     0.084 C 
HETATM    5  C   UNL     1      -1.533  13.978  23.247  0.00  0.00     0.038 C 
HETATM    6  C   UNL     1      -1.095  14.873  22.217  0.00  0.00     0.066 C 
ENDROOT
BRANCH   1   7
HETATM    7  C   UNL     1      -1.732  13.529  25.808  0.00  0.00     0.172 A 
HETATM    8  N   UNL     1      -1.848  12.207  26.233  0.00  0.00    -0.244 N 
HETATM    9  C   UNL     1      -2.667  12.287  27.364  0.00  0.00     0.349 A 
HETATM   10  O   UNL     1      -3.200  11.422  28.038  0.00  0.00    -0.245 OA
HETATM   11  N   UNL     1      -2.887  13.630  27.586  0.00  0.00    -0.226 N 
HETATM   12  H   UNL     1      -3.541  13.993  28.268  0.00  0.00     0.194 HD
HETATM   13  N   UNL     1      -2.339  14.377  26.617  0.00  0.00    -0.151 NA
BRANCH   8  14
HETATM   14  C   UNL     1      -1.361  10.938  25.774  0.00  0.00     0.051 C 
HETATM   15  C   UNL     1      -1.597  10.376  24.513  0.00  0.00    -0.035 C 
HETATM   16  C   UNL     1      -2.867  10.615  23.742  0.00  0.00     0.050 C 
HETATM   17  C   UNL     1      -0.804   9.300  24.049  0.00  0.00     0.009 C 
HETATM   18  C   UNL     1      -0.009   8.571  24.922  0.00  0.00     0.001 C 
HETATM   19  C   UNL     1       0.021   8.935  26.255  0.00  0.00     0.002 C 
HETATM   20  C   UNL     1      -0.596  10.127  26.655  0.00  0.00     0.031 C 
ENDBRANCH   8  14
ENDBRANCH   1   7
BRANCH   2  21
HETATM   21  O   UNL     1       0.548  15.256  26.034  0.00  0.00    -0.360 OA
HETATM   22  H   UNL     1       1.378  14.734  26.081  0.00  0.00     0.217 HD
ENDBRANCH   2  21
BRANCH   6  23
HETATM   23  C   UNL     1      -2.006  15.259  21.048  0.00  0.00     0.256 C 
HETATM   24  O   UNL     1      -2.090  16.467  20.779  0.00  0.00    -0.267 OA
HETATM   25  N   UNL     1      -2.871  14.360  20.403  0.00  0.00    -0.352 N 
HETATM   26  C   UNL     1      -2.862  12.925  20.596  0.00  0.00     0.152 C 
BRANCH  25  27
HETATM   27  C   UNL     1      -4.046  14.907  19.695  0.00  0.00     0.125 C 
BRANCH  27  28
HETATM   28  C   UNL     1      -5.256  13.986  19.480  0.00  0.00     0.015 C 
HETATM   29  C   UNL     1      -5.616  13.694  18.031  0.00  0.00     0.006 C 
ENDBRANCH  27  28
ENDBRANCH  25  27
ENDBRANCH   6  23
BRANCH   4  30
HETATM   30  O   UNL     1       0.500  16.579  21.560  0.00  0.00    -0.360 OA
HETATM   31  H   UNL     1       0.507  16.121  20.702  0.00  0.00     0.217 HD
ENDBRANCH   4  30
TORSDOF 7
ENDMDL
