REMARK  7 active torsions:
REMARK  status: ('A' for Active; 'I' for Inactive)
REMARK    1  A    between atoms: C_7  and  N_8 
REMARK    2  A    between atoms: C_14  and  C_15 
REMARK    3  A    between atoms: C_16  and  O_17 
REMARK    4  A    between atoms: C_19  and  O_20 
REMARK    5  A    between atoms: C_22  and  C_23 
REMARK       I    between atoms: C_23  and  N_25 
REMARK    6  A    between atoms: N_25  and  C_27 
REMARK    7  A    between atoms: C_27  and  C_28 
ROOT
HETATM    1  C   UNL     1       0.014  -1.335  -0.024  0.00  0.00     0.046 C 
HETATM    2  C   UNL     1      -1.171  -1.625  -0.744  0.00  0.00     0.082 C 
HETATM    3  C   UNL     1      -2.106  -0.645  -1.058  0.00  0.00     0.075 C 
HETATM    4  C   UNL     1      -1.857   0.677  -0.712  0.00  0.00     0.084 C 
HETATM    5  C   UNL     1       0.159  -0.020   0.465  0.00  0.00     0.038 C 
HETATM    6  C   UNL     1      -0.702   1.033   0.015  0.00  0.00     0.066 C 
ENDROOT
BRANCH   1   7
HETATM    7  C   UNL     1       1.028  -2.447   0.072  0.00  0.00     0.172 A 
HETATM    8  N   UNL     1       2.422  -2.441   0.070  0.00  0.00    -0.244 N 
HETATM    9  C   UNL     1       2.764  -3.796   0.027  0.00  0.00     0.349 A 
HETATM   10  O   UNL     1       3.837  -4.353  -0.133  0.00  0.00    -0.245 OA
HETATM   11  N   UNL     1       1.579  -4.496   0.112  0.00  0.00    -0.226 N 
HETATM   12  H   UNL     1       1.501  -5.498  -0.012  0.00  0.00     0.194 HD
HETATM   13  N   UNL     1       0.526  -3.666   0.109  0.00  0.00    -0.151 NA
BRANCH   8  14
HETATM   14  C   UNL     1       3.441  -1.431   0.083  0.00  0.00     0.051 C 
HETATM   15  C   UNL     1       3.304  -0.121  -0.395  0.00  0.00    -0.035 C 
HETATM   16  C   UNL     1       2.412   0.231  -1.554  0.00  0.00     0.050 C 
HETATM   17  C   UNL     1       4.240   0.875  -0.031  0.00  0.00     0.009 C 
HETATM   18  C   UNL     1       5.466   0.534   0.524  0.00  0.00     0.001 C 
HETATM   19  C   UNL     1       5.746  -0.801   0.746  0.00  0.00     0.002 C 
HETATM   20  C   UNL     1       4.731  -1.752   0.582  0.00  0.00     0.031 C 
ENDBRANCH   8  14
ENDBRANCH   1   7
BRANCH   2  21
HETATM   21  O   UNL     1      -1.495  -2.871  -1.228  0.00  0.00    -0.360 OA
HETATM   22  H   UNL     1      -0.888  -3.525  -0.819  0.00  0.00     0.217 HD
ENDBRANCH   2  21
BRANCH   6  23
HETATM   23  C   UNL     1      -0.197   2.470  -0.146  0.00  0.00     0.256 C 
HETATM   24  O   UNL     1      -0.456   3.038  -1.218  0.00  0.00    -0.267 OA
HETATM   25  N   UNL     1       0.678   3.095   0.757  0.00  0.00    -0.352 N 
HETATM   26  C   UNL     1       1.042   2.564   2.054  0.00  0.00     0.152 C 
BRANCH  25  27
HETATM   27  C   UNL     1       1.502   4.219   0.267  0.00  0.00     0.125 C 
BRANCH  27  28
HETATM   28  C   UNL     1       0.909   5.635   0.333  0.00  0.00     0.015 C 
HETATM   29  C   UNL     1       0.602   6.159   1.727  0.00  0.00     0.006 C 
ENDBRANCH  27  28
ENDBRANCH  25  27
ENDBRANCH   6  23
BRANCH   4  30
HETATM   30  O   UNL     1      -2.770   1.616  -1.113  0.00  0.00    -0.360 OA
HETATM   31  H   UNL     1      -3.243   1.288  -1.897  0.00  0.00     0.217 HD
ENDBRANCH   4  30
TORSDOF 7
