MODEL 1
REMARK VINA RESULT:    -8.327      0.000      0.000
REMARK INTER + INTRA:         -12.624
REMARK INTER:                 -10.881
REMARK INTRA:                  -1.743
REMARK UNBOUND:                -2.106
REMARK  5 active torsions:
REMARK  status: ('A' for Active; 'I' for Inactive)
REMARK    1  A    between atoms: C_7  and  C_8 
REMARK    2  A    between atoms: C_8  and  C_9 
REMARK    3  A    between atoms: C_16  and  C_20 
REMARK    4  A    between atoms: C_17  and  O_19 
REMARK       I    between atoms: C_20  and  N_22 
REMARK    5  A    between atoms: N_22  and  C_24 
ROOT
HETATM    1  C   UNL     1       2.934  11.776  23.099  0.00  0.00     0.071 C 
HETATM    2  N   UNL     1       2.341  10.822  23.839  0.00  0.00    -0.178 NA
HETATM    3  N   UNL     1       3.130   9.751  23.682  0.00  0.00    -0.277 N 
HETATM    4  H   UNL     1       2.879   8.896  24.165  0.00  0.00     0.189 HD
HETATM    5  C   UNL     1       4.118  11.287  22.466  0.00  0.00     0.020 C 
HETATM    6  C   UNL     1       4.156   9.937  22.799  0.00  0.00     0.065 C 
HETATM    7  C   UNL     1       5.114  11.803  21.609  0.00  0.00     0.035 C 
HETATM    8  C   UNL     1       6.079  10.928  21.072  0.00  0.00     0.066 C 
HETATM    9  C   UNL     1       5.986   9.550  21.332  0.00  0.00     0.083 C 
HETATM   10  C   UNL     1       5.067   9.034  22.248  0.00  0.00     0.069 C 
ENDROOT
BRANCH   8  11
HETATM   11  C   UNL     1       7.163  11.427  20.191  0.00  0.00     0.260 C 
HETATM   12  O   UNL     1       6.967  11.298  18.977  0.00  0.00    -0.267 OA
HETATM   13  N   UNL     1       8.325  12.033  20.720  0.00  0.00    -0.318 N 
HETATM   14  C   UNL     1       9.193  12.749  19.786  0.00  0.00     0.159 C 
BRANCH  13  15
HETATM   15  C   UNL     1       8.798  11.898  22.067  0.00  0.00     0.040 A 
HETATM   16  C   UNL     1       9.483  10.754  22.493  0.00  0.00     0.072 A 
HETATM   17  C   UNL     1       9.864  10.621  23.824  0.00  0.00     0.118 A 
HETATM   18  F   UNL     1      10.494   9.504  24.218  0.00  0.00    -0.206 F 
HETATM   19  C   UNL     1       9.609  11.623  24.746  0.00  0.00     0.042 A 
HETATM   20  C   UNL     1       8.988  12.793  24.331  0.00  0.00     0.005 A 
HETATM   21  C   UNL     1       8.597  12.935  22.995  0.00  0.00     0.030 A 
ENDBRANCH  13  15
ENDBRANCH   8  11
BRANCH   9  22
HETATM   22  O   UNL     1       6.752   8.622  20.676  0.00  0.00    -0.360 OA
HETATM   23  H   UNL     1       7.688   8.800  20.919  0.00  0.00     0.217 HD
ENDBRANCH   9  22
BRANCH   1  24
HETATM   24  C   UNL     1       2.253  13.095  22.906  0.00  0.00     0.100 C 
BRANCH  24  25
HETATM   25  C   UNL     1       3.052  14.148  23.633  0.00  0.00    -0.052 A 
HETATM   26  C   UNL     1       4.267  14.599  23.096  0.00  0.00     0.014 A 
HETATM   27  C   UNL     1       5.048  15.544  23.773  0.00  0.00    -0.061 A 
HETATM   28  C   UNL     1       6.403  15.922  23.256  0.00  0.00     0.048 C 
HETATM   29  C   UNL     1       4.586  16.072  24.984  0.00  0.00     0.007 A 
HETATM   30  C   UNL     1       3.356  15.670  25.503  0.00  0.00     0.001 A 
HETATM   31  C   UNL     1       2.593  14.716  24.831  0.00  0.00     0.007 A 
ENDBRANCH  24  25
ENDBRANCH   1  24
TORSDOF 5
ENDMDL
MODEL 2
REMARK VINA RESULT:    -8.216      2.345      3.327
REMARK INTER + INTRA:         -12.484
REMARK INTER:                 -10.810
REMARK INTRA:                  -1.673
REMARK UNBOUND:                -2.106
REMARK  5 active torsions:
REMARK  status: ('A' for Active; 'I' for Inactive)
REMARK    1  A    between atoms: C_7  and  C_8 
REMARK    2  A    between atoms: C_8  and  C_9 
REMARK    3  A    between atoms: C_16  and  C_20 
REMARK    4  A    between atoms: C_17  and  O_19 
REMARK       I    between atoms: C_20  and  N_22 
REMARK    5  A    between atoms: N_22  and  C_24 
ROOT
HETATM    1  C   UNL     1       4.341  11.617  21.792  0.00  0.00     0.071 C 
HETATM    2  N   UNL     1       4.098  10.375  22.247  0.00  0.00    -0.178 NA
HETATM    3  N   UNL     1       5.311   9.899  22.560  0.00  0.00    -0.277 N 
HETATM    4  H   UNL     1       5.375   8.961  22.938  0.00  0.00     0.189 HD
HETATM    5  C   UNL     1       5.737  11.920  21.820  0.00  0.00     0.020 C 
HETATM    6  C   UNL     1       6.340  10.739  22.240  0.00  0.00     0.065 C 
HETATM    7  C   UNL     1       6.558  13.018  21.483  0.00  0.00     0.035 C 
HETATM    8  C   UNL     1       7.958  12.869  21.526  0.00  0.00     0.066 C 
HETATM    9  C   UNL     1       8.512  11.612  21.822  0.00  0.00     0.083 C 
HETATM   10  C   UNL     1       7.722  10.541  22.247  0.00  0.00     0.069 C 
ENDROOT
BRANCH   8  11
HETATM   11  C   UNL     1       8.862  14.000  21.210  0.00  0.00     0.260 C 
HETATM   12  O   UNL     1       9.468  13.917  20.134  0.00  0.00    -0.267 OA
HETATM   13  N   UNL     1       8.991  15.108  22.077  0.00  0.00    -0.318 N 
HETATM   14  C   UNL     1       9.668  16.295  21.556  0.00  0.00     0.159 C 
BRANCH  13  15
HETATM   15  C   UNL     1       8.634  15.126  23.466  0.00  0.00     0.040 A 
HETATM   16  C   UNL     1       9.597  15.002  24.473  0.00  0.00     0.072 A 
HETATM   17  C   UNL     1       9.211  14.949  25.808  0.00  0.00     0.118 A 
HETATM   18  F   UNL     1      10.148  14.799  26.758  0.00  0.00    -0.206 F 
HETATM   19  C   UNL     1       7.879  15.054  26.174  0.00  0.00     0.042 A 
HETATM   20  C   UNL     1       6.913  15.243  25.196  0.00  0.00     0.005 A 
HETATM   21  C   UNL     1       7.290  15.292  23.849  0.00  0.00     0.030 A 
ENDBRANCH  13  15
ENDBRANCH   8  11
BRANCH   9  22
HETATM   22  O   UNL     1       9.846  11.338  21.672  0.00  0.00    -0.360 OA
HETATM   23  H   UNL     1      10.257  12.133  21.267  0.00  0.00     0.217 HD
ENDBRANCH   9  22
BRANCH   1  24
HETATM   24  C   UNL     1       3.226  12.421  21.200  0.00  0.00     0.100 C 
BRANCH  24  25
HETATM   25  C   UNL     1       2.534  13.159  22.320  0.00  0.00    -0.052 A 
HETATM   26  C   UNL     1       3.248  14.083  23.096  0.00  0.00     0.014 A 
HETATM   27  C   UNL     1       2.639  14.749  24.168  0.00  0.00    -0.061 A 
HETATM   28  C   UNL     1       3.444  15.635  25.069  0.00  0.00     0.048 C 
HETATM   29  C   UNL     1       1.287  14.514  24.438  0.00  0.00     0.007 A 
HETATM   30  C   UNL     1       0.552  13.637  23.643  0.00  0.00     0.001 A 
HETATM   31  C   UNL     1       1.170  12.965  22.589  0.00  0.00     0.007 A 
ENDBRANCH  24  25
ENDBRANCH   1  24
TORSDOF 5
ENDMDL
MODEL 3
REMARK VINA RESULT:    -8.016      2.630      3.862
REMARK INTER + INTRA:         -12.231
REMARK INTER:                 -10.482
REMARK INTRA:                  -1.749
REMARK UNBOUND:                -2.106
REMARK  5 active torsions:
REMARK  status: ('A' for Active; 'I' for Inactive)
REMARK    1  A    between atoms: C_7  and  C_8 
REMARK    2  A    between atoms: C_8  and  C_9 
REMARK    3  A    between atoms: C_16  and  C_20 
REMARK    4  A    between atoms: C_17  and  O_19 
REMARK       I    between atoms: C_20  and  N_22 
REMARK    5  A    between atoms: N_22  and  C_24 
ROOT
HETATM    1  C   UNL     1       4.401  11.495  21.630  0.00  0.00     0.071 C 
HETATM    2  N   UNL     1       4.120  10.235  22.007  0.00  0.00    -0.178 NA
HETATM    3  N   UNL     1       5.312   9.719  22.336  0.00  0.00    -0.277 N 
HETATM    4  H   UNL     1       5.346   8.761  22.664  0.00  0.00     0.189 HD
HETATM    5  C   UNL     1       5.800  11.770  21.725  0.00  0.00     0.020 C 
HETATM    6  C   UNL     1       6.367  10.555  22.100  0.00  0.00     0.065 C 
HETATM    7  C   UNL     1       6.652  12.868  21.478  0.00  0.00     0.035 C 
HETATM    8  C   UNL     1       8.047  12.689  21.562  0.00  0.00     0.066 C 
HETATM    9  C   UNL     1       8.567  11.407  21.808  0.00  0.00     0.083 C 
HETATM   10  C   UNL     1       7.744  10.330  22.145  0.00  0.00     0.069 C 
ENDROOT
BRANCH   8  11
HETATM   11  C   UNL     1       8.981  13.819  21.342  0.00  0.00     0.260 C 
HETATM   12  O   UNL     1       9.734  13.708  20.366  0.00  0.00    -0.267 OA
HETATM   13  N   UNL     1       8.980  14.954  22.183  0.00  0.00    -0.318 N 
HETATM   14  C   UNL     1       9.719  16.130  21.726  0.00  0.00     0.159 C 
BRANCH  13  15
HETATM   15  C   UNL     1       8.430  15.012  23.506  0.00  0.00     0.040 A 
HETATM   16  C   UNL     1       7.106  15.405  23.734  0.00  0.00     0.072 A 
HETATM   17  C   UNL     1       6.624  15.522  25.033  0.00  0.00     0.118 A 
HETATM   18  F   UNL     1       5.361  15.930  25.231  0.00  0.00    -0.206 F 
HETATM   19  C   UNL     1       7.423  15.221  26.124  0.00  0.00     0.042 A 
HETATM   20  C   UNL     1       8.719  14.768  25.919  0.00  0.00     0.005 A 
HETATM   21  C   UNL     1       9.215  14.651  24.616  0.00  0.00     0.030 A 
ENDBRANCH  13  15
ENDBRANCH   8  11
BRANCH   9  22
HETATM   22  O   UNL     1       9.901  11.117  21.691  0.00  0.00    -0.360 OA
HETATM   23  H   UNL     1      10.012  10.174  21.945  0.00  0.00     0.217 HD
ENDBRANCH   9  22
BRANCH   1  24
HETATM   24  C   UNL     1       3.322  12.352  21.045  0.00  0.00     0.100 C 
BRANCH  24  25
HETATM   25  C   UNL     1       2.625  13.067  22.176  0.00  0.00    -0.052 A 
HETATM   26  C   UNL     1       1.308  12.723  22.516  0.00  0.00     0.014 A 
HETATM   27  C   UNL     1       0.625  13.402  23.533  0.00  0.00    -0.061 A 
HETATM   28  C   UNL     1      -0.821  13.115  23.800  0.00  0.00     0.048 C 
HETATM   29  C   UNL     1       1.285  14.410  24.244  0.00  0.00     0.007 A 
HETATM   30  C   UNL     1       2.610  14.727  23.952  0.00  0.00     0.001 A 
HETATM   31  C   UNL     1       3.277  14.059  22.925  0.00  0.00     0.007 A 
ENDBRANCH  24  25
ENDBRANCH   1  24
TORSDOF 5
ENDMDL
MODEL 4
REMARK VINA RESULT:    -7.877      2.626      5.231
REMARK INTER + INTRA:         -12.056
REMARK INTER:                  -9.639
REMARK INTRA:                  -2.417
REMARK UNBOUND:                -2.106
REMARK  5 active torsions:
REMARK  status: ('A' for Active; 'I' for Inactive)
REMARK    1  A    between atoms: C_7  and  C_8 
REMARK    2  A    between atoms: C_8  and  C_9 
REMARK    3  A    between atoms: C_16  and  C_20 
REMARK    4  A    between atoms: C_17  and  O_19 
REMARK       I    between atoms: C_20  and  N_22 
REMARK    5  A    between atoms: N_22  and  C_24 
ROOT
HETATM    1  C   UNL     1       6.871  15.132  23.035  0.00  0.00     0.071 C 
HETATM    2  N   UNL     1       6.371  15.888  24.028  0.00  0.00    -0.178 NA
HETATM    3  N   UNL     1       5.134  15.408  24.212  0.00  0.00    -0.277 N 
HETATM    4  H   UNL     1       4.558  15.829  24.932  0.00  0.00     0.189 HD
HETATM    5  C   UNL     1       5.923  14.160  22.589  0.00  0.00     0.020 C 
HETATM    6  C   UNL     1       4.772  14.438  23.320  0.00  0.00     0.065 C 
HETATM    7  C   UNL     1       5.881  13.134  21.620  0.00  0.00     0.035 C 
HETATM    8  C   UNL     1       4.664  12.463  21.382  0.00  0.00     0.066 C 
HETATM    9  C   UNL     1       3.501  12.880  22.052  0.00  0.00     0.083 C 
HETATM   10  C   UNL     1       3.541  13.828  23.077  0.00  0.00     0.069 C 
ENDROOT
BRANCH   8  11
HETATM   11  C   UNL     1       4.576  11.359  20.398  0.00  0.00     0.260 C 
HETATM   12  O   UNL     1       3.848  11.571  19.420  0.00  0.00    -0.267 OA
HETATM   13  N   UNL     1       5.303  10.159  20.565  0.00  0.00    -0.318 N 
HETATM   14  C   UNL     1       5.385   9.257  19.417  0.00  0.00     0.159 C 
BRANCH  13  15
HETATM   15  C   UNL     1       5.858   9.685  21.799  0.00  0.00     0.040 A 
HETATM   16  C   UNL     1       5.055   9.117  22.795  0.00  0.00     0.072 A 
HETATM   17  C   UNL     1       5.612   8.734  24.010  0.00  0.00     0.118 A 
HETATM   18  F   UNL     1       4.819   8.220  24.964  0.00  0.00    -0.206 F 
HETATM   19  C   UNL     1       6.969   8.870  24.251  0.00  0.00     0.042 A 
HETATM   20  C   UNL     1       7.795   9.371  23.254  0.00  0.00     0.005 A 
HETATM   21  C   UNL     1       7.244   9.763  22.029  0.00  0.00     0.030 A 
ENDBRANCH  13  15
ENDBRANCH   8  11
BRANCH   9  22
HETATM   22  O   UNL     1       2.253  12.424  21.717  0.00  0.00    -0.360 OA
HETATM   23  H   UNL     1       1.837  12.094  22.544  0.00  0.00     0.217 HD
ENDBRANCH   9  22
BRANCH   1  24
HETATM   24  C   UNL     1       8.203  15.473  22.442  0.00  0.00     0.100 C 
BRANCH  24  25
HETATM   25  C   UNL     1       8.987  14.193  22.283  0.00  0.00    -0.052 A 
HETATM   26  C   UNL     1       9.297  13.418  23.410  0.00  0.00     0.014 A 
HETATM   27  C   UNL     1      10.061  12.249  23.293  0.00  0.00    -0.061 A 
HETATM   28  C   UNL     1      10.496  11.499  24.515  0.00  0.00     0.048 C 
HETATM   29  C   UNL     1      10.483  11.832  22.026  0.00  0.00     0.007 A 
HETATM   30  C   UNL     1      10.138  12.566  20.892  0.00  0.00     0.001 A 
HETATM   31  C   UNL     1       9.393  13.738  21.019  0.00  0.00     0.007 A 
ENDBRANCH  24  25
ENDBRANCH   1  24
TORSDOF 5
ENDMDL
MODEL 5
REMARK VINA RESULT:    -7.849      2.894      5.684
REMARK INTER + INTRA:         -12.020
REMARK INTER:                 -10.124
REMARK INTRA:                  -1.896
REMARK UNBOUND:                -2.106
REMARK  5 active torsions:
REMARK  status: ('A' for Active; 'I' for Inactive)
REMARK    1  A    between atoms: C_7  and  C_8 
REMARK    2  A    between atoms: C_8  and  C_9 
REMARK    3  A    between atoms: C_16  and  C_20 
REMARK    4  A    between atoms: C_17  and  O_19 
REMARK       I    between atoms: C_20  and  N_22 
REMARK    5  A    between atoms: N_22  and  C_24 
ROOT
HETATM    1  C   UNL     1       9.520  10.920  22.462  0.00  0.00     0.071 C 
HETATM    2  N   UNL     1      10.120  10.229  23.448  0.00  0.00    -0.178 NA
HETATM    3  N   UNL     1       9.103   9.702  24.143  0.00  0.00    -0.277 N 
HETATM    4  H   UNL     1       9.319   9.122  24.945  0.00  0.00     0.189 HD
HETATM    5  C   UNL     1       8.097  10.823  22.546  0.00  0.00     0.020 C 
HETATM    6  C   UNL     1       7.868  10.097  23.711  0.00  0.00     0.065 C 
HETATM    7  C   UNL     1       6.989  11.311  21.822  0.00  0.00     0.035 C 
HETATM    8  C   UNL     1       5.690  11.101  22.327  0.00  0.00     0.066 C 
HETATM    9  C   UNL     1       5.526  10.482  23.578  0.00  0.00     0.083 C 
HETATM   10  C   UNL     1       6.600   9.911  24.265  0.00  0.00     0.069 C 
ENDROOT
BRANCH   8  11
HETATM   11  C   UNL     1       4.493  11.568  21.589  0.00  0.00     0.260 C 
HETATM   12  O   UNL     1       4.149  10.866  20.629  0.00  0.00    -0.267 OA
HETATM   13  N   UNL     1       3.786  12.725  21.984  0.00  0.00    -0.318 N 
HETATM   14  C   UNL     1       2.468  12.944  21.388  0.00  0.00     0.159 C 
BRANCH  13  15
HETATM   15  C   UNL     1       4.299  13.773  22.817  0.00  0.00     0.040 A 
HETATM   16  C   UNL     1       3.575  14.262  23.911  0.00  0.00     0.072 A 
HETATM   17  C   UNL     1       4.067  15.329  24.655  0.00  0.00     0.118 A 
HETATM   18  F   UNL     1       3.343  15.803  25.681  0.00  0.00    -0.206 F 
HETATM   19  C   UNL     1       5.291  15.907  24.359  0.00  0.00     0.042 A 
HETATM   20  C   UNL     1       6.055  15.395  23.319  0.00  0.00     0.005 A 
HETATM   21  C   UNL     1       5.567  14.325  22.561  0.00  0.00     0.030 A 
ENDBRANCH  13  15
ENDBRANCH   8  11
BRANCH   9  22
HETATM   22  O   UNL     1       4.320  10.438  24.227  0.00  0.00    -0.360 OA
HETATM   23  H   UNL     1       4.457   9.918  25.050  0.00  0.00     0.217 HD
ENDBRANCH   9  22
BRANCH   1  24
HETATM   24  C   UNL     1      10.342  11.780  21.554  0.00  0.00     0.100 C 
BRANCH  24  25
HETATM   25  C   UNL     1      10.018  13.222  21.852  0.00  0.00    -0.052 A 
HETATM   26  C   UNL     1      10.449  13.803  23.054  0.00  0.00     0.014 A 
HETATM   27  C   UNL     1      10.123  15.128  23.373  0.00  0.00    -0.061 A 
HETATM   28  C   UNL     1      10.476  15.696  24.713  0.00  0.00     0.048 C 
HETATM   29  C   UNL     1       9.391  15.891  22.456  0.00  0.00     0.007 A 
HETATM   30  C   UNL     1       9.001  15.343  21.236  0.00  0.00     0.001 A 
HETATM   31  C   UNL     1       9.314  14.018  20.934  0.00  0.00     0.007 A 
ENDBRANCH  24  25
ENDBRANCH   1  24
TORSDOF 5
ENDMDL
MODEL 6
REMARK VINA RESULT:    -7.804      2.630      5.253
REMARK INTER + INTRA:         -11.963
REMARK INTER:                  -9.668
REMARK INTRA:                  -2.295
REMARK UNBOUND:                -2.106
REMARK  5 active torsions:
REMARK  status: ('A' for Active; 'I' for Inactive)
REMARK    1  A    between atoms: C_7  and  C_8 
REMARK    2  A    between atoms: C_8  and  C_9 
REMARK    3  A    between atoms: C_16  and  C_20 
REMARK    4  A    between atoms: C_17  and  O_19 
REMARK       I    between atoms: C_20  and  N_22 
REMARK    5  A    between atoms: N_22  and  C_24 
ROOT
HETATM    1  C   UNL     1       8.523  13.939  24.464  0.00  0.00     0.071 C 
HETATM    2  N   UNL     1       9.562  14.699  24.072  0.00  0.00    -0.178 NA
HETATM    3  N   UNL     1      10.264  13.897  23.261  0.00  0.00    -0.277 N 
HETATM    4  H   UNL     1      11.105  14.267  22.832  0.00  0.00     0.189 HD
HETATM    5  C   UNL     1       8.582  12.635  23.886  0.00  0.00     0.020 C 
HETATM    6  C   UNL     1       9.783  12.621  23.183  0.00  0.00     0.065 C 
HETATM    7  C   UNL     1       7.805  11.457  23.925  0.00  0.00     0.035 C 
HETATM    8  C   UNL     1       8.294  10.290  23.303  0.00  0.00     0.066 C 
HETATM    9  C   UNL     1       9.575  10.297  22.728  0.00  0.00     0.083 C 
HETATM   10  C   UNL     1      10.318  11.472  22.598  0.00  0.00     0.069 C 
ENDROOT
BRANCH   8  11
HETATM   11  C   UNL     1       7.502   9.037  23.291  0.00  0.00     0.260 C 
HETATM   12  O   UNL     1       7.988   8.091  23.923  0.00  0.00    -0.267 OA
HETATM   13  N   UNL     1       6.261   8.953  22.620  0.00  0.00    -0.318 N 
HETATM   14  C   UNL     1       5.422   7.788  22.901  0.00  0.00     0.159 C 
BRANCH  13  15
HETATM   15  C   UNL     1       5.808   9.840  21.588  0.00  0.00     0.040 A 
HETATM   16  C   UNL     1       4.910  10.879  21.855  0.00  0.00     0.072 A 
HETATM   17  C   UNL     1       4.432  11.675  20.820  0.00  0.00     0.118 A 
HETATM   18  F   UNL     1       3.548  12.647  21.093  0.00  0.00    -0.206 F 
HETATM   19  C   UNL     1       4.858  11.486  19.515  0.00  0.00     0.042 A 
HETATM   20  C   UNL     1       5.797  10.503  19.238  0.00  0.00     0.005 A 
HETATM   21  C   UNL     1       6.280   9.693  20.271  0.00  0.00     0.030 A 
ENDBRANCH  13  15
ENDBRANCH   8  11
BRANCH   9  22
HETATM   22  O   UNL     1      10.199   9.154  22.300  0.00  0.00    -0.360 OA
HETATM   23  H   UNL     1      10.292   8.568  23.085  0.00  0.00     0.217 HD
ENDBRANCH   9  22
BRANCH   1  24
HETATM   24  C   UNL     1       7.583  14.452  25.510  0.00  0.00     0.100 C 
BRANCH  24  25
HETATM   25  C   UNL     1       6.251  14.718  24.854  0.00  0.00    -0.052 A 
HETATM   26  C   UNL     1       5.219  13.772  24.956  0.00  0.00     0.014 A 
HETATM   27  C   UNL     1       3.988  13.976  24.320  0.00  0.00    -0.061 A 
HETATM   28  C   UNL     1       2.941  12.904  24.327  0.00  0.00     0.048 C 
HETATM   29  C   UNL     1       3.776  15.161  23.606  0.00  0.00     0.007 A 
HETATM   30  C   UNL     1       4.773  16.131  23.540  0.00  0.00     0.001 A 
HETATM   31  C   UNL     1       6.002  15.913  24.161  0.00  0.00     0.007 A 
ENDBRANCH  24  25
ENDBRANCH   1  24
TORSDOF 5
ENDMDL
MODEL 7
REMARK VINA RESULT:    -7.770      2.498      4.050
REMARK INTER + INTRA:         -11.921
REMARK INTER:                  -9.638
REMARK INTRA:                  -2.283
REMARK UNBOUND:                -2.106
REMARK  5 active torsions:
REMARK  status: ('A' for Active; 'I' for Inactive)
REMARK    1  A    between atoms: C_7  and  C_8 
REMARK    2  A    between atoms: C_8  and  C_9 
REMARK    3  A    between atoms: C_16  and  C_20 
REMARK    4  A    between atoms: C_17  and  O_19 
REMARK       I    between atoms: C_20  and  N_22 
REMARK    5  A    between atoms: N_22  and  C_24 
ROOT
HETATM    1  C   UNL     1       4.533  14.759  24.169  0.00  0.00     0.071 C 
HETATM    2  N   UNL     1       3.582  15.418  23.483  0.00  0.00    -0.178 NA
HETATM    3  N   UNL     1       2.997  14.469  22.741  0.00  0.00    -0.277 N 
HETATM    4  H   UNL     1       2.230  14.738  22.136  0.00  0.00     0.189 HD
HETATM    5  C   UNL     1       4.540  13.367  23.846  0.00  0.00     0.020 C 
HETATM    6  C   UNL     1       3.585  13.239  22.842  0.00  0.00     0.065 C 
HETATM    7  C   UNL     1       5.277  12.226  24.230  0.00  0.00     0.035 C 
HETATM    8  C   UNL     1       5.066  11.010  23.550  0.00  0.00     0.066 C 
HETATM    9  C   UNL     1       4.189  10.973  22.453  0.00  0.00     0.083 C 
HETATM   10  C   UNL     1       3.385  12.064  22.116  0.00  0.00     0.069 C 
ENDROOT
BRANCH   8  11
HETATM   11  C   UNL     1       5.793   9.777  23.936  0.00  0.00     0.260 C 
HETATM   12  O   UNL     1       5.162   8.986  24.649  0.00  0.00    -0.267 OA
HETATM   13  N   UNL     1       7.109   9.524  23.489  0.00  0.00    -0.318 N 
HETATM   14  C   UNL     1       7.633   8.171  23.673  0.00  0.00     0.159 C 
BRANCH  13  15
HETATM   15  C   UNL     1       8.024  10.508  22.990  0.00  0.00     0.040 A 
HETATM   16  C   UNL     1       7.837  11.123  21.747  0.00  0.00     0.072 A 
HETATM   17  C   UNL     1       8.782  12.019  21.259  0.00  0.00     0.118 A 
HETATM   18  F   UNL     1       8.598  12.574  20.051  0.00  0.00    -0.206 F 
HETATM   19  C   UNL     1       9.905  12.350  21.999  0.00  0.00     0.042 A 
HETATM   20  C   UNL     1      10.078  11.802  23.262  0.00  0.00     0.005 A 
HETATM   21  C   UNL     1       9.136  10.896  23.761  0.00  0.00     0.030 A 
ENDBRANCH  13  15
ENDBRANCH   8  11
BRANCH   9  22
HETATM   22  O   UNL     1       4.097   9.891  21.616  0.00  0.00    -0.360 OA
HETATM   23  H   UNL     1       3.380   9.319  21.967  0.00  0.00     0.217 HD
ENDBRANCH   9  22
BRANCH   1  24
HETATM   24  C   UNL     1       5.508  15.524  25.008  0.00  0.00     0.100 C 
BRANCH  24  25
HETATM   25  C   UNL     1       6.851  15.484  24.323  0.00  0.00    -0.052 A 
HETATM   26  C   UNL     1       7.999  15.139  25.052  0.00  0.00     0.014 A 
HETATM   27  C   UNL     1       9.263  15.136  24.448  0.00  0.00    -0.061 A 
HETATM   28  C   UNL     1      10.495  14.893  25.265  0.00  0.00     0.048 C 
HETATM   29  C   UNL     1       9.371  15.443  23.088  0.00  0.00     0.007 A 
HETATM   30  C   UNL     1       8.233  15.737  22.339  0.00  0.00     0.001 A 
HETATM   31  C   UNL     1       6.980  15.756  22.952  0.00  0.00     0.007 A 
ENDBRANCH  24  25
ENDBRANCH   1  24
TORSDOF 5
ENDMDL
MODEL 8
REMARK VINA RESULT:    -7.587      3.007      4.822
REMARK INTER + INTRA:         -11.689
REMARK INTER:                  -9.489
REMARK INTRA:                  -2.200
REMARK UNBOUND:                -2.106
REMARK  5 active torsions:
REMARK  status: ('A' for Active; 'I' for Inactive)
REMARK    1  A    between atoms: C_7  and  C_8 
REMARK    2  A    between atoms: C_8  and  C_9 
REMARK    3  A    between atoms: C_16  and  C_20 
REMARK    4  A    between atoms: C_17  and  O_19 
REMARK       I    between atoms: C_20  and  N_22 
REMARK    5  A    between atoms: N_22  and  C_24 
ROOT
HETATM    1  C   UNL     1       5.532   9.850  23.423  0.00  0.00     0.071 C 
HETATM    2  N   UNL     1       5.542   9.047  22.345  0.00  0.00    -0.178 NA
HETATM    3  N   UNL     1       6.791   9.153  21.871  0.00  0.00    -0.277 N 
HETATM    4  H   UNL     1       7.038   8.618  21.047  0.00  0.00     0.189 HD
HETATM    5  C   UNL     1       6.802  10.472  23.625  0.00  0.00     0.020 C 
HETATM    6  C   UNL     1       7.565  10.062  22.536  0.00  0.00     0.065 C 
HETATM    7  C   UNL     1       7.370  11.374  24.550  0.00  0.00     0.035 C 
HETATM    8  C   UNL     1       8.666  11.875  24.315  0.00  0.00     0.066 C 
HETATM    9  C   UNL     1       9.336  11.534  23.127  0.00  0.00     0.083 C 
HETATM   10  C   UNL     1       8.831  10.574  22.247  0.00  0.00     0.069 C 
ENDROOT
BRANCH   8  11
HETATM   11  C   UNL     1       9.318  12.800  25.272  0.00  0.00     0.260 C 
HETATM   12  O   UNL     1      10.121  12.279  26.057  0.00  0.00    -0.267 OA
HETATM   13  N   UNL     1       9.050  14.187  25.258  0.00  0.00    -0.318 N 
HETATM   14  C   UNL     1       9.943  15.052  26.030  0.00  0.00     0.159 C 
BRANCH  13  15
HETATM   15  C   UNL     1       7.904  14.810  24.663  0.00  0.00     0.040 A 
HETATM   16  C   UNL     1       6.797  15.195  25.428  0.00  0.00     0.072 A 
HETATM   17  C   UNL     1       5.671  15.728  24.811  0.00  0.00     0.118 A 
HETATM   18  F   UNL     1       4.608  16.063  25.560  0.00  0.00    -0.206 F 
HETATM   19  C   UNL     1       5.630  15.926  23.440  0.00  0.00     0.042 A 
HETATM   20  C   UNL     1       6.741  15.611  22.670  0.00  0.00     0.005 A 
HETATM   21  C   UNL     1       7.877  15.069  23.281  0.00  0.00     0.030 A 
ENDBRANCH  13  15
ENDBRANCH   8  11
BRANCH   9  22
HETATM   22  O   UNL     1      10.496  12.147  22.731  0.00  0.00    -0.360 OA
HETATM   23  H   UNL     1      10.924  12.499  23.543  0.00  0.00     0.217 HD
ENDBRANCH   9  22
BRANCH   1  24
HETATM   24  C   UNL     1       4.244  10.108  24.143  0.00  0.00     0.100 C 
BRANCH  24  25
HETATM   25  C   UNL     1       3.685  11.419  23.647  0.00  0.00    -0.052 A 
HETATM   26  C   UNL     1       3.217  12.372  24.564  0.00  0.00     0.014 A 
HETATM   27  C   UNL     1       2.654  13.578  24.127  0.00  0.00    -0.061 A 
HETATM   28  C   UNL     1       2.041  14.531  25.108  0.00  0.00     0.048 C 
HETATM   29  C   UNL     1       2.596  13.847  22.755  0.00  0.00     0.007 A 
HETATM   30  C   UNL     1       3.103  12.932  21.836  0.00  0.00     0.001 A 
HETATM   31  C   UNL     1       3.646  11.726  22.278  0.00  0.00     0.007 A 
ENDBRANCH  24  25
ENDBRANCH   1  24
TORSDOF 5
ENDMDL
MODEL 9
REMARK VINA RESULT:    -7.408      2.114      4.463
REMARK INTER + INTRA:         -11.463
REMARK INTER:                  -9.357
REMARK INTRA:                  -2.106
REMARK UNBOUND:                -2.106
REMARK  5 active torsions:
REMARK  status: ('A' for Active; 'I' for Inactive)
REMARK    1  A    between atoms: C_7  and  C_8 
REMARK    2  A    between atoms: C_8  and  C_9 
REMARK    3  A    between atoms: C_16  and  C_20 
REMARK    4  A    between atoms: C_17  and  O_19 
REMARK       I    between atoms: C_20  and  N_22 
REMARK    5  A    between atoms: N_22  and  C_24 
ROOT
HETATM    1  C   UNL     1       7.532  14.988  23.468  0.00  0.00     0.071 C 
HETATM    2  N   UNL     1       8.548  15.164  24.332  0.00  0.00    -0.178 NA
HETATM    3  N   UNL     1       9.313  14.078  24.161  0.00  0.00    -0.277 N 
HETATM    4  H   UNL     1      10.158  13.995  24.714  0.00  0.00     0.189 HD
HETATM    5  C   UNL     1       7.667  13.763  22.745  0.00  0.00     0.020 C 
HETATM    6  C   UNL     1       8.792  13.158  23.295  0.00  0.00     0.065 C 
HETATM    7  C   UNL     1       6.944  13.073  21.749  0.00  0.00     0.035 C 
HETATM    8  C   UNL     1       7.347  11.772  21.383  0.00  0.00     0.066 C 
HETATM    9  C   UNL     1       8.406  11.157  22.071  0.00  0.00     0.083 C 
HETATM   10  C   UNL     1       9.191  11.855  22.992  0.00  0.00     0.069 C 
ENDROOT
BRANCH   8  11
HETATM   11  C   UNL     1       6.639  11.018  20.321  0.00  0.00     0.260 C 
HETATM   12  O   UNL     1       6.933  11.326  19.160  0.00  0.00    -0.267 OA
HETATM   13  N   UNL     1       5.712   9.998  20.632  0.00  0.00    -0.318 N 
HETATM   14  C   UNL     1       5.287   9.121  19.542  0.00  0.00     0.159 C 
BRANCH  13  15
HETATM   15  C   UNL     1       5.049   9.828  21.892  0.00  0.00     0.040 A 
HETATM   16  C   UNL     1       5.385   8.786  22.764  0.00  0.00     0.072 A 
HETATM   17  C   UNL     1       4.674   8.603  23.945  0.00  0.00     0.118 A 
HETATM   18  F   UNL     1       4.992   7.580  24.752  0.00  0.00    -0.206 F 
HETATM   19  C   UNL     1       3.648   9.462  24.303  0.00  0.00     0.042 A 
HETATM   20  C   UNL     1       3.340  10.540  23.486  0.00  0.00     0.005 A 
HETATM   21  C   UNL     1       4.047  10.730  22.293  0.00  0.00     0.030 A 
ENDBRANCH  13  15
ENDBRANCH   8  11
BRANCH   9  22
HETATM   22  O   UNL     1       8.712   9.830  21.921  0.00  0.00    -0.360 OA
HETATM   23  H   UNL     1       9.533   9.665  22.436  0.00  0.00     0.217 HD
ENDBRANCH   9  22
BRANCH   1  24
HETATM   24  C   UNL     1       6.377  15.941  23.477  0.00  0.00     0.100 C 
BRANCH  24  25
HETATM   25  C   UNL     1       5.140  15.177  23.875  0.00  0.00    -0.052 A 
HETATM   26  C   UNL     1       3.938  15.379  23.180  0.00  0.00     0.014 A 
HETATM   27  C   UNL     1       2.765  14.712  23.558  0.00  0.00    -0.061 A 
HETATM   28  C   UNL     1       1.461  15.032  22.893  0.00  0.00     0.048 C 
HETATM   29  C   UNL     1       2.808  13.803  24.621  0.00  0.00     0.007 A 
HETATM   30  C   UNL     1       4.006  13.554  25.287  0.00  0.00     0.001 A 
HETATM   31  C   UNL     1       5.165  14.235  24.916  0.00  0.00     0.007 A 
ENDBRANCH  24  25
ENDBRANCH   1  24
TORSDOF 5
ENDMDL
