MODEL 1
REMARK VINA RESULT:    -7.840      0.000      0.000
REMARK INTER + INTRA:         -12.254
REMARK INTER:                 -10.005
REMARK INTRA:                  -2.249
REMARK UNBOUND:                -1.665
REMARK  7 active torsions:
REMARK  status: ('A' for Active; 'I' for Inactive)
REMARK    1  A    between atoms: C_7  and  N_8 
REMARK    2  A    between atoms: C_14  and  C_15 
REMARK    3  A    between atoms: C_16  and  O_17 
REMARK    4  A    between atoms: C_19  and  O_20 
REMARK    5  A    between atoms: C_22  and  S_23 
REMARK    6  A    between atoms: S_23  and  N_26 
REMARK    7  A    between atoms: N_26  and  C_28 
ROOT
HETATM    1  C   UNL     1       3.504   6.932  18.510  0.00  0.00     0.047 A 
HETATM    2  C   UNL     1       2.667   8.057  18.400  0.00  0.00     0.082 A 
HETATM    3  C   UNL     1       1.378   7.957  17.880  0.00  0.00     0.075 A 
HETATM    4  C   UNL     1       0.890   6.721  17.466  0.00  0.00     0.091 A 
HETATM    5  C   UNL     1       2.995   5.686  18.110  0.00  0.00     0.046 A 
HETATM    6  C   UNL     1       1.690   5.579  17.578  0.00  0.00     0.108 A 
ENDROOT
BRANCH   1   7
HETATM    7  C   UNL     1       4.851   7.114  19.117  0.00  0.00     0.172 A 
HETATM    8  N   UNL     1       5.282   6.608  20.310  0.00  0.00    -0.243 N 
HETATM    9  C   UNL     1       6.583   7.060  20.459  0.00  0.00     0.349 A 
HETATM   10  O   UNL     1       7.416   6.777  21.304  0.00  0.00    -0.245 OA
HETATM   11  N   UNL     1       6.816   7.871  19.356  0.00  0.00    -0.226 N 
HETATM   12  H   UNL     1       7.692   8.332  19.147  0.00  0.00     0.194 HD
HETATM   13  N   UNL     1       5.743   7.872  18.521  0.00  0.00    -0.151 NA
BRANCH   8  14
HETATM   14  C   UNL     1       4.762   5.627  21.169  0.00  0.00     0.067 A 
HETATM   15  C   UNL     1       4.070   6.005  22.335  0.00  0.00     0.061 A 
HETATM   16 CL   UNL     1       3.550   7.638  22.592  0.00  0.00    -0.082 Cl
HETATM   17  C   UNL     1       3.695   5.051  23.279  0.00  0.00     0.026 A 
HETATM   18  C   UNL     1       4.001   3.708  23.068  0.00  0.00     0.002 A 
HETATM   19  C   UNL     1       4.654   3.317  21.897  0.00  0.00     0.002 A 
HETATM   20  C   UNL     1       5.029   4.269  20.943  0.00  0.00     0.032 A 
ENDBRANCH   8  14
ENDBRANCH   1   7
BRANCH   2  21
HETATM   21  O   UNL     1       3.030   9.322  18.792  0.00  0.00    -0.360 OA
HETATM   22  H   UNL     1       3.905   9.272  19.228  0.00  0.00     0.217 HD
ENDBRANCH   2  21
BRANCH   6  23
HETATM   23  S   UNL     1       1.187   4.002  16.901  0.00  0.00     0.246 S 
HETATM   24  O   UNL     1       0.474   4.192  15.656  0.00  0.00    -0.206 OA
HETATM   25  O   UNL     1       2.372   3.176  16.943  0.00  0.00    -0.206 OA
BRANCH  23  26
HETATM   26  N   UNL     1       0.031   3.312  18.021  0.00  0.00    -0.207 NA
HETATM   27  C   UNL     1      -1.064   2.582  17.319  0.00  0.00     0.130 C 
BRANCH  26  28
HETATM   28  C   UNL     1       0.716   2.394  19.049  0.00  0.00     0.065 C 
HETATM   29  C   UNL     1       1.239   3.147  20.276  0.00  0.00     0.027 C 
HETATM   30  C   UNL     1      -0.228   1.298  19.565  0.00  0.00     0.027 C 
ENDBRANCH  26  28
ENDBRANCH  23  26
ENDBRANCH   6  23
BRANCH   4  31
HETATM   31  O   UNL     1      -0.379   6.666  16.980  0.00  0.00    -0.359 OA
HETATM   32  H   UNL     1      -0.960   6.187  17.596  0.00  0.00     0.217 HD
ENDBRANCH   4  31
TORSDOF 7
ENDMDL
MODEL 2
REMARK VINA RESULT:    -7.550      3.341      6.520
REMARK INTER + INTRA:         -11.863
REMARK INTER:                 -10.021
REMARK INTRA:                  -1.842
REMARK UNBOUND:                -1.665
REMARK  7 active torsions:
REMARK  status: ('A' for Active; 'I' for Inactive)
REMARK    1  A    between atoms: C_7  and  N_8 
REMARK    2  A    between atoms: C_14  and  C_15 
REMARK    3  A    between atoms: C_16  and  O_17 
REMARK    4  A    between atoms: C_19  and  O_20 
REMARK    5  A    between atoms: C_22  and  S_23 
REMARK    6  A    between atoms: S_23  and  N_26 
REMARK    7  A    between atoms: N_26  and  C_28 
ROOT
HETATM    1  C   UNL     1       3.660   7.069  19.508  0.00  0.00     0.047 A 
HETATM    2  C   UNL     1       4.974   6.724  19.143  0.00  0.00     0.082 A 
HETATM    3  C   UNL     1       5.957   6.482  20.101  0.00  0.00     0.075 A 
HETATM    4  C   UNL     1       5.643   6.568  21.454  0.00  0.00     0.091 A 
HETATM    5  C   UNL     1       3.348   7.133  20.876  0.00  0.00     0.046 A 
HETATM    6  C   UNL     1       4.341   6.891  21.852  0.00  0.00     0.108 A 
ENDROOT
BRANCH   1   7
HETATM    7  C   UNL     1       2.658   7.269  18.425  0.00  0.00     0.172 A 
HETATM    8  N   UNL     1       2.014   6.292  17.722  0.00  0.00    -0.243 N 
HETATM    9  C   UNL     1       1.204   6.958  16.815  0.00  0.00     0.349 A 
HETATM   10  O   UNL     1       0.358   6.518  16.055  0.00  0.00    -0.245 OA
HETATM   11  N   UNL     1       1.478   8.306  17.003  0.00  0.00    -0.226 N 
HETATM   12  H   UNL     1       1.023   9.065  16.514  0.00  0.00     0.194 HD
HETATM   13  N   UNL     1       2.360   8.483  18.022  0.00  0.00    -0.151 NA
BRANCH   8  14
HETATM   14  C   UNL     1       1.878   4.909  17.922  0.00  0.00     0.067 A 
HETATM   15  C   UNL     1       1.026   4.423  18.932  0.00  0.00     0.061 A 
HETATM   16 CL   UNL     1      -0.116   5.453  19.730  0.00  0.00    -0.082 Cl
HETATM   17  C   UNL     1       1.008   3.066  19.252  0.00  0.00     0.026 A 
HETATM   18  C   UNL     1       1.836   2.180  18.566  0.00  0.00     0.002 A 
HETATM   19  C   UNL     1       2.658   2.646  17.538  0.00  0.00     0.002 A 
HETATM   20  C   UNL     1       2.678   4.006  17.208  0.00  0.00     0.032 A 
ENDBRANCH   8  14
ENDBRANCH   1   7
BRANCH   2  21
HETATM   21  O   UNL     1       5.397   6.591  17.843  0.00  0.00    -0.360 OA
HETATM   22  H   UNL     1       6.371   6.695  17.822  0.00  0.00     0.217 HD
ENDBRANCH   2  21
BRANCH   6  23
HETATM   23  S   UNL     1       3.923   7.191  23.565  0.00  0.00     0.246 S 
HETATM   24  O   UNL     1       3.107   6.113  24.081  0.00  0.00    -0.206 OA
HETATM   25  O   UNL     1       5.174   7.529  24.207  0.00  0.00    -0.206 OA
BRANCH  23  26
HETATM   26  N   UNL     1       2.916   8.622  23.601  0.00  0.00    -0.207 NA
HETATM   27  C   UNL     1       1.840   8.527  24.631  0.00  0.00     0.130 C 
BRANCH  26  28
HETATM   28  C   UNL     1       3.750   9.898  23.814  0.00  0.00     0.065 C 
HETATM   29  C   UNL     1       4.314  10.474  22.512  0.00  0.00     0.027 C 
HETATM   30  C   UNL     1       2.937  11.016  24.482  0.00  0.00     0.027 C 
ENDBRANCH  26  28
ENDBRANCH  23  26
ENDBRANCH   6  23
BRANCH   4  31
HETATM   31  O   UNL     1       6.627   6.307  22.356  0.00  0.00    -0.359 OA
HETATM   32  H   UNL     1       6.516   6.854  23.152  0.00  0.00     0.217 HD
ENDBRANCH   4  31
TORSDOF 7
ENDMDL
MODEL 3
REMARK VINA RESULT:    -7.521      2.339      5.462
REMARK INTER + INTRA:         -11.824
REMARK INTER:                  -9.678
REMARK INTRA:                  -2.146
REMARK UNBOUND:                -1.665
REMARK  7 active torsions:
REMARK  status: ('A' for Active; 'I' for Inactive)
REMARK    1  A    between atoms: C_7  and  N_8 
REMARK    2  A    between atoms: C_14  and  C_15 
REMARK    3  A    between atoms: C_16  and  O_17 
REMARK    4  A    between atoms: C_19  and  O_20 
REMARK    5  A    between atoms: C_22  and  S_23 
REMARK    6  A    between atoms: S_23  and  N_26 
REMARK    7  A    between atoms: N_26  and  C_28 
ROOT
HETATM    1  C   UNL     1       2.064   5.811  17.350  0.00  0.00     0.047 A 
HETATM    2  C   UNL     1       1.088   6.748  16.964  0.00  0.00     0.082 A 
HETATM    3  C   UNL     1       1.180   8.089  17.331  0.00  0.00     0.075 A 
HETATM    4  C   UNL     1       2.263   8.529  18.088  0.00  0.00     0.091 A 
HETATM    5  C   UNL     1       3.164   6.269  18.095  0.00  0.00     0.046 A 
HETATM    6  C   UNL     1       3.260   7.627  18.473  0.00  0.00     0.108 A 
ENDROOT
BRANCH   1   7
HETATM    7  C   UNL     1       1.915   4.407  16.880  0.00  0.00     0.172 A 
HETATM    8  N   UNL     1       2.305   3.280  17.546  0.00  0.00    -0.243 N 
HETATM    9  C   UNL     1       1.984   2.223  16.710  0.00  0.00     0.349 A 
HETATM   10  O   UNL     1       2.034   1.021  16.916  0.00  0.00    -0.245 OA
HETATM   11  N   UNL     1       1.476   2.810  15.559  0.00  0.00    -0.226 N 
HETATM   12  H   UNL     1       1.114   2.306  14.760  0.00  0.00     0.194 HD
HETATM   13  N   UNL     1       1.415   4.161  15.691  0.00  0.00    -0.151 NA
BRANCH   8  14
HETATM   14  C   UNL     1       2.700   3.049  18.874  0.00  0.00     0.067 A 
HETATM   15  C   UNL     1       1.740   3.047  19.904  0.00  0.00     0.061 A 
HETATM   16 CL   UNL     1       0.042   2.998  19.563  0.00  0.00    -0.082 Cl
HETATM   17  C   UNL     1       2.134   2.986  21.240  0.00  0.00     0.026 A 
HETATM   18  C   UNL     1       3.488   2.921  21.562  0.00  0.00     0.002 A 
HETATM   19  C   UNL     1       4.446   2.884  20.547  0.00  0.00     0.002 A 
HETATM   20  C   UNL     1       4.058   2.941  19.204  0.00  0.00     0.032 A 
ENDBRANCH   8  14
ENDBRANCH   1   7
BRANCH   2  21
HETATM   21  O   UNL     1      -0.013   6.437  16.204  0.00  0.00    -0.360 OA
HETATM   22  H   UNL     1      -0.016   5.470  16.045  0.00  0.00     0.217 HD
ENDBRANCH   2  21
BRANCH   6  23
HETATM   23  S   UNL     1       4.577   8.095  19.590  0.00  0.00     0.246 S 
HETATM   24  O   UNL     1       5.777   8.418  18.849  0.00  0.00    -0.206 OA
HETATM   25  O   UNL     1       3.988   9.067  20.483  0.00  0.00    -0.206 OA
BRANCH  23  26
HETATM   26  N   UNL     1       4.963   6.678  20.544  0.00  0.00    -0.207 NA
HETATM   27  C   UNL     1       6.360   6.209  20.313  0.00  0.00     0.130 C 
BRANCH  26  28
HETATM   28  C   UNL     1       4.719   6.921  22.044  0.00  0.00     0.065 C 
HETATM   29  C   UNL     1       3.347   6.432  22.519  0.00  0.00     0.027 C 
HETATM   30  C   UNL     1       5.769   6.224  22.921  0.00  0.00     0.027 C 
ENDBRANCH  26  28
ENDBRANCH  23  26
ENDBRANCH   6  23
BRANCH   4  31
HETATM   31  O   UNL     1       2.322   9.849  18.409  0.00  0.00    -0.359 OA
HETATM   32  H   UNL     1       3.161  10.055  18.856  0.00  0.00     0.217 HD
ENDBRANCH   4  31
TORSDOF 7
ENDMDL
MODEL 4
REMARK VINA RESULT:    -7.414      8.025     10.325
REMARK INTER + INTRA:         -11.680
REMARK INTER:                 -10.097
REMARK INTRA:                  -1.583
REMARK UNBOUND:                -1.665
REMARK  7 active torsions:
REMARK  status: ('A' for Active; 'I' for Inactive)
REMARK    1  A    between atoms: C_7  and  N_8 
REMARK    2  A    between atoms: C_14  and  C_15 
REMARK    3  A    between atoms: C_16  and  O_17 
REMARK    4  A    between atoms: C_19  and  O_20 
REMARK    5  A    between atoms: C_22  and  S_23 
REMARK    6  A    between atoms: S_23  and  N_26 
REMARK    7  A    between atoms: N_26  and  C_28 
ROOT
HETATM    1  C   UNL     1      -0.855   9.834  27.162  0.00  0.00     0.047 A 
HETATM    2  C   UNL     1      -1.007  10.594  28.337  0.00  0.00     0.082 A 
HETATM    3  C   UNL     1      -0.639  10.089  29.582  0.00  0.00     0.075 A 
HETATM    4  C   UNL     1      -0.096   8.811  29.681  0.00  0.00     0.091 A 
HETATM    5  C   UNL     1      -0.286   8.555  27.269  0.00  0.00     0.046 A 
HETATM    6  C   UNL     1       0.086   8.037  28.530  0.00  0.00     0.108 A 
ENDROOT
BRANCH   1   7
HETATM    7  C   UNL     1      -1.232  10.461  25.866  0.00  0.00     0.172 A 
HETATM    8  N   UNL     1      -0.378  10.889  24.890  0.00  0.00    -0.243 N 
HETATM    9  C   UNL     1      -1.184  11.417  23.894  0.00  0.00     0.349 A 
HETATM   10  O   UNL     1      -0.889  11.813  22.778  0.00  0.00    -0.245 OA
HETATM   11  N   UNL     1      -2.479  11.323  24.385  0.00  0.00    -0.226 N 
HETATM   12  H   UNL     1      -3.313  11.593  23.881  0.00  0.00     0.194 HD
HETATM   13  N   UNL     1      -2.494  10.704  25.595  0.00  0.00    -0.151 NA
BRANCH   8  14
HETATM   14  C   UNL     1       0.992  10.676  24.665  0.00  0.00     0.067 A 
HETATM   15  C   UNL     1       1.840  11.766  24.394  0.00  0.00     0.061 A 
HETATM   16 CL   UNL     1       1.325  13.402  24.645  0.00  0.00    -0.082 Cl
HETATM   17  C   UNL     1       3.162  11.557  24.006  0.00  0.00     0.026 A 
HETATM   18  C   UNL     1       3.654  10.259  23.888  0.00  0.00     0.002 A 
HETATM   19  C   UNL     1       2.832   9.171  24.190  0.00  0.00     0.002 A 
HETATM   20  C   UNL     1       1.505   9.374  24.585  0.00  0.00     0.032 A 
ENDBRANCH   8  14
ENDBRANCH   1   7
BRANCH   2  21
HETATM   21  O   UNL     1      -1.512  11.870  28.363  0.00  0.00    -0.360 OA
HETATM   22  H   UNL     1      -0.839  12.477  27.991  0.00  0.00     0.217 HD
ENDBRANCH   2  21
BRANCH   6  23
HETATM   23  S   UNL     1       0.610   6.328  28.614  0.00  0.00     0.246 S 
HETATM   24  O   UNL     1      -0.148   5.617  29.621  0.00  0.00    -0.206 OA
HETATM   25  O   UNL     1       0.615   5.866  27.244  0.00  0.00    -0.206 OA
BRANCH  23  26
HETATM   26  N   UNL     1       2.270   6.331  29.169  0.00  0.00    -0.207 NA
HETATM   27  C   UNL     1       2.931   5.009  28.971  0.00  0.00     0.130 C 
BRANCH  26  28
HETATM   28  C   UNL     1       3.091   7.447  28.498  0.00  0.00     0.065 C 
HETATM   29  C   UNL     1       3.952   8.240  29.486  0.00  0.00     0.027 C 
HETATM   30  C   UNL     1       4.037   6.901  27.419  0.00  0.00     0.027 C 
ENDBRANCH  26  28
ENDBRANCH  23  26
ENDBRANCH   6  23
BRANCH   4  31
HETATM   31  O   UNL     1       0.266   8.365  30.914  0.00  0.00    -0.359 OA
HETATM   32  H   UNL     1       0.452   9.113  31.508  0.00  0.00     0.217 HD
ENDBRANCH   4  31
TORSDOF 7
ENDMDL
MODEL 5
REMARK VINA RESULT:    -7.340      7.776      9.872
REMARK INTER + INTRA:         -11.580
REMARK INTER:                  -9.606
REMARK INTRA:                  -1.974
REMARK UNBOUND:                -1.665
REMARK  7 active torsions:
REMARK  status: ('A' for Active; 'I' for Inactive)
REMARK    1  A    between atoms: C_7  and  N_8 
REMARK    2  A    between atoms: C_14  and  C_15 
REMARK    3  A    between atoms: C_16  and  O_17 
REMARK    4  A    between atoms: C_19  and  O_20 
REMARK    5  A    between atoms: C_22  and  S_23 
REMARK    6  A    between atoms: S_23  and  N_26 
REMARK    7  A    between atoms: N_26  and  C_28 
ROOT
HETATM    1  C   UNL     1       1.431   8.790  28.709  0.00  0.00     0.047 A 
HETATM    2  C   UNL     1       0.346   9.140  29.534  0.00  0.00     0.082 A 
HETATM    3  C   UNL     1      -0.821   9.691  29.008  0.00  0.00     0.075 A 
HETATM    4  C   UNL     1      -0.935   9.896  27.636  0.00  0.00     0.091 A 
HETATM    5  C   UNL     1       1.298   8.980  27.324  0.00  0.00     0.046 A 
HETATM    6  C   UNL     1       0.118   9.542  26.786  0.00  0.00     0.108 A 
ENDROOT
BRANCH   1   7
HETATM    7  C   UNL     1       2.625   8.167  29.343  0.00  0.00     0.172 A 
HETATM    8  N   UNL     1       2.994   6.854  29.268  0.00  0.00    -0.243 N 
HETATM    9  C   UNL     1       4.147   6.747  30.029  0.00  0.00     0.349 A 
HETATM   10  O   UNL     1       4.906   5.802  30.168  0.00  0.00    -0.245 OA
HETATM   11  N   UNL     1       4.349   8.012  30.565  0.00  0.00    -0.226 N 
HETATM   12  H   UNL     1       5.133   8.279  31.145  0.00  0.00     0.194 HD
HETATM   13  N   UNL     1       3.413   8.886  30.108  0.00  0.00    -0.151 NA
BRANCH   8  14
HETATM   14  C   UNL     1       2.578   5.796  28.444  0.00  0.00     0.067 A 
HETATM   15  C   UNL     1       3.046   5.707  27.119  0.00  0.00     0.061 A 
HETATM   16 CL   UNL     1       4.370   6.674  26.557  0.00  0.00    -0.082 Cl
HETATM   17  C   UNL     1       2.517   4.763  26.242  0.00  0.00     0.026 A 
HETATM   18  C   UNL     1       1.519   3.893  26.678  0.00  0.00     0.002 A 
HETATM   19  C   UNL     1       1.075   3.947  28.000  0.00  0.00     0.002 A 
HETATM   20  C   UNL     1       1.605   4.890  28.888  0.00  0.00     0.032 A 
ENDBRANCH   8  14
ENDBRANCH   1   7
BRANCH   2  21
HETATM   21  O   UNL     1       0.335   8.969  30.897  0.00  0.00    -0.360 OA
HETATM   22  H   UNL     1       0.920   9.644  31.298  0.00  0.00     0.217 HD
ENDBRANCH   2  21
BRANCH   6  23
HETATM   23  S   UNL     1       0.100   9.944  25.042  0.00  0.00     0.246 S 
HETATM   24  O   UNL     1       1.451  10.111  24.549  0.00  0.00    -0.206 OA
HETATM   25  O   UNL     1      -0.780   8.969  24.438  0.00  0.00    -0.206 OA
BRANCH  23  26
HETATM   26  N   UNL     1      -0.670  11.508  24.888  0.00  0.00    -0.207 NA
HETATM   27  C   UNL     1       0.301  12.630  25.040  0.00  0.00     0.130 C 
BRANCH  26  28
HETATM   28  C   UNL     1      -1.433  11.636  23.558  0.00  0.00     0.065 C 
HETATM   29  C   UNL     1      -2.925  11.930  23.744  0.00  0.00     0.027 C 
HETATM   30  C   UNL     1      -0.865  12.753  22.670  0.00  0.00     0.027 C 
ENDBRANCH  26  28
ENDBRANCH  23  26
ENDBRANCH   6  23
BRANCH   4  31
HETATM   31  O   UNL     1      -2.098  10.419  27.164  0.00  0.00    -0.359 OA
HETATM   32  H   UNL     1      -2.183  10.257  26.208  0.00  0.00     0.217 HD
ENDBRANCH   4  31
TORSDOF 7
ENDMDL
MODEL 6
REMARK VINA RESULT:    -7.274      3.418      6.635
REMARK INTER + INTRA:         -11.490
REMARK INTER:                  -9.826
REMARK INTRA:                  -1.665
REMARK UNBOUND:                -1.665
REMARK  7 active torsions:
REMARK  status: ('A' for Active; 'I' for Inactive)
REMARK    1  A    between atoms: C_7  and  N_8 
REMARK    2  A    between atoms: C_14  and  C_15 
REMARK    3  A    between atoms: C_16  and  O_17 
REMARK    4  A    between atoms: C_19  and  O_20 
REMARK    5  A    between atoms: C_22  and  S_23 
REMARK    6  A    between atoms: S_23  and  N_26 
REMARK    7  A    between atoms: N_26  and  C_28 
ROOT
HETATM    1  C   UNL     1       3.678   7.202  19.680  0.00  0.00     0.047 A 
HETATM    2  C   UNL     1       5.003   6.857  19.351  0.00  0.00     0.082 A 
HETATM    3  C   UNL     1       5.949   6.582  20.336  0.00  0.00     0.075 A 
HETATM    4  C   UNL     1       5.589   6.634  21.679  0.00  0.00     0.091 A 
HETATM    5  C   UNL     1       3.319   7.231  21.037  0.00  0.00     0.046 A 
HETATM    6  C   UNL     1       4.276   6.956  22.040  0.00  0.00     0.108 A 
ENDROOT
BRANCH   1   7
HETATM    7  C   UNL     1       2.716   7.438  18.569  0.00  0.00     0.172 A 
HETATM    8  N   UNL     1       1.794   6.553  18.088  0.00  0.00    -0.243 N 
HETATM    9  C   UNL     1       1.153   7.210  17.050  0.00  0.00     0.349 A 
HETATM   10  O   UNL     1       0.181   6.872  16.394  0.00  0.00    -0.245 OA
HETATM   11  N   UNL     1       1.795   8.437  16.943  0.00  0.00    -0.226 N 
HETATM   12  H   UNL     1       1.541   9.171  16.296  0.00  0.00     0.194 HD
HETATM   13  N   UNL     1       2.742   8.573  17.908  0.00  0.00    -0.151 NA
BRANCH   8  14
HETATM   14  C   UNL     1       1.296   5.337  18.583  0.00  0.00     0.067 A 
HETATM   15  C   UNL     1       2.005   4.142  18.360  0.00  0.00     0.061 A 
HETATM   16 CL   UNL     1       3.637   4.149  17.777  0.00  0.00    -0.082 Cl
HETATM   17  C   UNL     1       1.445   2.911  18.698  0.00  0.00     0.026 A 
HETATM   18  C   UNL     1       0.173   2.860  19.265  0.00  0.00     0.002 A 
HETATM   19  C   UNL     1      -0.524   4.042  19.525  0.00  0.00     0.002 A 
HETATM   20  C   UNL     1       0.035   5.281  19.193  0.00  0.00     0.032 A 
ENDBRANCH   8  14
ENDBRANCH   1   7
BRANCH   2  21
HETATM   21  O   UNL     1       5.469   6.756  18.064  0.00  0.00    -0.360 OA
HETATM   22  H   UNL     1       5.961   5.913  17.978  0.00  0.00     0.217 HD
ENDBRANCH   2  21
BRANCH   6  23
HETATM   23  S   UNL     1       3.801   7.212  23.746  0.00  0.00     0.246 S 
HETATM   24  O   UNL     1       2.972   6.120  24.208  0.00  0.00    -0.206 OA
HETATM   25  O   UNL     1       5.029   7.538  24.436  0.00  0.00    -0.206 OA
BRANCH  23  26
HETATM   26  N   UNL     1       2.788   8.639  23.783  0.00  0.00    -0.207 NA
HETATM   27  C   UNL     1       1.721   8.544  24.822  0.00  0.00     0.130 C 
BRANCH  26  28
HETATM   28  C   UNL     1       3.618   9.920  23.983  0.00  0.00     0.065 C 
HETATM   29  C   UNL     1       4.194  10.475  22.676  0.00  0.00     0.027 C 
HETATM   30  C   UNL     1       2.797  11.048  24.624  0.00  0.00     0.027 C 
ENDBRANCH  26  28
ENDBRANCH  23  26
ENDBRANCH   6  23
BRANCH   4  31
HETATM   31  O   UNL     1       6.540   6.341  22.607  0.00  0.00    -0.359 OA
HETATM   32  H   UNL     1       6.950   7.155  22.945  0.00  0.00     0.217 HD
ENDBRANCH   4  31
TORSDOF 7
ENDMDL
MODEL 7
REMARK VINA RESULT:    -7.181      4.422      6.845
REMARK INTER + INTRA:         -11.364
REMARK INTER:                 -10.028
REMARK INTRA:                  -1.337
REMARK UNBOUND:                -1.665
REMARK  7 active torsions:
REMARK  status: ('A' for Active; 'I' for Inactive)
REMARK    1  A    between atoms: C_7  and  N_8 
REMARK    2  A    between atoms: C_14  and  C_15 
REMARK    3  A    between atoms: C_16  and  O_17 
REMARK    4  A    between atoms: C_19  and  O_20 
REMARK    5  A    between atoms: C_22  and  S_23 
REMARK    6  A    between atoms: S_23  and  N_26 
REMARK    7  A    between atoms: N_26  and  C_28 
ROOT
HETATM    1  C   UNL     1       4.069   6.867  22.382  0.00  0.00     0.047 A 
HETATM    2  C   UNL     1       4.049   5.638  23.067  0.00  0.00     0.082 A 
HETATM    3  C   UNL     1       3.389   5.495  24.286  0.00  0.00     0.075 A 
HETATM    4  C   UNL     1       2.721   6.580  24.846  0.00  0.00     0.091 A 
HETATM    5  C   UNL     1       3.374   7.950  22.944  0.00  0.00     0.046 A 
HETATM    6  C   UNL     1       2.706   7.811  24.182  0.00  0.00     0.108 A 
ENDROOT
BRANCH   1   7
HETATM    7  C   UNL     1       4.758   6.926  21.064  0.00  0.00     0.172 A 
HETATM    8  N   UNL     1       4.297   6.423  19.881  0.00  0.00    -0.243 N 
HETATM    9  C   UNL     1       5.285   6.697  18.949  0.00  0.00     0.349 A 
HETATM   10  O   UNL     1       5.280   6.546  17.738  0.00  0.00    -0.245 OA
HETATM   11  N   UNL     1       6.310   7.296  19.670  0.00  0.00    -0.226 N 
HETATM   12  H   UNL     1       7.170   7.650  19.272  0.00  0.00     0.194 HD
HETATM   13  N   UNL     1       5.956   7.455  20.972  0.00  0.00    -0.151 NA
BRANCH   8  14
HETATM   14  C   UNL     1       3.037   5.958  19.473  0.00  0.00     0.067 A 
HETATM   15  C   UNL     1       2.117   6.842  18.878  0.00  0.00     0.061 A 
HETATM   16 CL   UNL     1       2.594   8.416  18.331  0.00  0.00    -0.082 Cl
HETATM   17  C   UNL     1       0.808   6.437  18.621  0.00  0.00     0.026 A 
HETATM   18  C   UNL     1       0.404   5.145  18.950  0.00  0.00     0.002 A 
HETATM   19  C   UNL     1       1.319   4.248  19.506  0.00  0.00     0.002 A 
HETATM   20  C   UNL     1       2.635   4.646  19.762  0.00  0.00     0.032 A 
ENDBRANCH   8  14
ENDBRANCH   1   7
BRANCH   2  21
HETATM   21  O   UNL     1       4.655   4.495  22.606  0.00  0.00    -0.360 OA
HETATM   22  H   UNL     1       5.206   4.729  21.830  0.00  0.00     0.217 HD
ENDBRANCH   2  21
BRANCH   6  23
HETATM   23  S   UNL     1       2.020   9.282  24.934  0.00  0.00     0.246 S 
HETATM   24  O   UNL     1       2.106   9.198  26.377  0.00  0.00    -0.206 OA
HETATM   25  O   UNL     1       2.631  10.388  24.232  0.00  0.00    -0.206 OA
BRANCH  23  26
HETATM   26  N   UNL     1       0.312   9.301  24.551  0.00  0.00    -0.207 NA
HETATM   27  C   UNL     1      -0.437   8.228  25.266  0.00  0.00     0.130 C 
BRANCH  26  28
HETATM   28  C   UNL     1      -0.318  10.676  24.835  0.00  0.00     0.065 C 
HETATM   29  C   UNL     1      -1.374  11.081  23.801  0.00  0.00     0.027 C 
HETATM   30  C   UNL     1      -0.998  10.728  26.211  0.00  0.00     0.027 C 
ENDBRANCH  26  28
ENDBRANCH  23  26
ENDBRANCH   6  23
BRANCH   4  31
HETATM   31  O   UNL     1       2.076   6.392  26.029  0.00  0.00    -0.359 OA
HETATM   32  H   UNL     1       1.491   7.143  26.222  0.00  0.00     0.217 HD
ENDBRANCH   4  31
TORSDOF 7
ENDMDL
MODEL 8
REMARK VINA RESULT:    -7.128      4.183      6.967
REMARK INTER + INTRA:         -11.292
REMARK INTER:                  -9.449
REMARK INTRA:                  -1.844
REMARK UNBOUND:                -1.665
REMARK  7 active torsions:
REMARK  status: ('A' for Active; 'I' for Inactive)
REMARK    1  A    between atoms: C_7  and  N_8 
REMARK    2  A    between atoms: C_14  and  C_15 
REMARK    3  A    between atoms: C_16  and  O_17 
REMARK    4  A    between atoms: C_19  and  O_20 
REMARK    5  A    between atoms: C_22  and  S_23 
REMARK    6  A    between atoms: S_23  and  N_26 
REMARK    7  A    between atoms: N_26  and  C_28 
ROOT
HETATM    1  C   UNL     1       4.273   6.370  22.655  0.00  0.00     0.047 A 
HETATM    2  C   UNL     1       4.305   5.039  23.112  0.00  0.00     0.082 A 
HETATM    3  C   UNL     1       3.412   4.580  24.078  0.00  0.00     0.075 A 
HETATM    4  C   UNL     1       2.453   5.442  24.604  0.00  0.00     0.091 A 
HETATM    5  C   UNL     1       3.288   7.226  23.176  0.00  0.00     0.046 A 
HETATM    6  C   UNL     1       2.383   6.766  24.158  0.00  0.00     0.108 A 
ENDROOT
BRANCH   1   7
HETATM    7  C   UNL     1       5.232   6.771  21.590  0.00  0.00     0.172 A 
HETATM    8  N   UNL     1       4.935   7.032  20.283  0.00  0.00    -0.243 N 
HETATM    9  C   UNL     1       6.144   7.339  19.679  0.00  0.00     0.349 A 
HETATM   10  O   UNL     1       6.373   7.751  18.554  0.00  0.00    -0.245 OA
HETATM   11  N   UNL     1       7.100   7.173  20.673  0.00  0.00    -0.226 N 
HETATM   12  H   UNL     1       8.089   7.353  20.564  0.00  0.00     0.194 HD
HETATM   13  N   UNL     1       6.516   6.847  21.857  0.00  0.00    -0.151 NA
BRANCH   8  14
HETATM   14  C   UNL     1       3.722   7.250  19.609  0.00  0.00     0.067 A 
HETATM   15  C   UNL     1       2.922   6.157  19.226  0.00  0.00     0.061 A 
HETATM   16 CL   UNL     1       3.211   4.561  19.836  0.00  0.00    -0.082 Cl
HETATM   17  C   UNL     1       1.804   6.347  18.414  0.00  0.00     0.026 A 
HETATM   18  C   UNL     1       1.471   7.628  17.981  0.00  0.00     0.002 A 
HETATM   19  C   UNL     1       2.237   8.723  18.386  0.00  0.00     0.002 A 
HETATM   20  C   UNL     1       3.356   8.541  19.204  0.00  0.00     0.032 A 
ENDBRANCH   8  14
ENDBRANCH   1   7
BRANCH   2  21
HETATM   21  O   UNL     1       5.191   4.095  22.655  0.00  0.00    -0.360 OA
HETATM   22  H   UNL     1       5.038   3.965  21.696  0.00  0.00     0.217 HD
ENDBRANCH   2  21
BRANCH   6  23
HETATM   23  S   UNL     1       1.295   7.963  24.922  0.00  0.00     0.246 S 
HETATM   24  O   UNL     1       1.697   9.308  24.568  0.00  0.00    -0.206 OA
HETATM   25  O   UNL     1      -0.043   7.502  24.627  0.00  0.00    -0.206 OA
BRANCH  23  26
HETATM   26  N   UNL     1       1.523   7.829  26.652  0.00  0.00    -0.207 NA
HETATM   27  C   UNL     1       2.426   8.890  27.184  0.00  0.00     0.130 C 
BRANCH  26  28
HETATM   28  C   UNL     1       0.181   7.841  27.404  0.00  0.00     0.065 C 
HETATM   29  C   UNL     1      -0.028   6.605  28.286  0.00  0.00     0.027 C 
HETATM   30  C   UNL     1       0.039   9.068  28.316  0.00  0.00     0.027 C 
ENDBRANCH  26  28
ENDBRANCH  23  26
ENDBRANCH   6  23
BRANCH   4  31
HETATM   31  O   UNL     1       1.591   4.947  25.532  0.00  0.00    -0.359 OA
HETATM   32  H   UNL     1       0.672   5.159  25.292  0.00  0.00     0.217 HD
ENDBRANCH   4  31
TORSDOF 7
ENDMDL
MODEL 9
REMARK VINA RESULT:    -7.070      4.489      6.875
REMARK INTER + INTRA:         -11.215
REMARK INTER:                  -9.378
REMARK INTRA:                  -1.837
REMARK UNBOUND:                -1.665
REMARK  7 active torsions:
REMARK  status: ('A' for Active; 'I' for Inactive)
REMARK    1  A    between atoms: C_7  and  N_8 
REMARK    2  A    between atoms: C_14  and  C_15 
REMARK    3  A    between atoms: C_16  and  O_17 
REMARK    4  A    between atoms: C_19  and  O_20 
REMARK    5  A    between atoms: C_22  and  S_23 
REMARK    6  A    between atoms: S_23  and  N_26 
REMARK    7  A    between atoms: N_26  and  C_28 
ROOT
HETATM    1  C   UNL     1       4.080   7.500  22.112  0.00  0.00     0.047 A 
HETATM    2  C   UNL     1       4.431   8.831  21.816  0.00  0.00     0.082 A 
HETATM    3  C   UNL     1       4.069   9.883  22.654  0.00  0.00     0.075 A 
HETATM    4  C   UNL     1       3.353   9.628  23.820  0.00  0.00     0.091 A 
HETATM    5  C   UNL     1       3.376   7.251  23.302  0.00  0.00     0.046 A 
HETATM    6  C   UNL     1       3.003   8.315  24.154  0.00  0.00     0.108 A 
ENDROOT
BRANCH   1   7
HETATM    7  C   UNL     1       4.542   6.429  21.189  0.00  0.00     0.172 A 
HETATM    8  N   UNL     1       3.900   5.987  20.067  0.00  0.00    -0.243 N 
HETATM    9  C   UNL     1       4.696   4.974  19.557  0.00  0.00     0.349 A 
HETATM   10  O   UNL     1       4.599   4.359  18.507  0.00  0.00    -0.245 OA
HETATM   11  N   UNL     1       5.740   4.839  20.462  0.00  0.00    -0.226 N 
HETATM   12  H   UNL     1       6.519   4.202  20.360  0.00  0.00     0.194 HD
HETATM   13  N   UNL     1       5.645   5.766  21.452  0.00  0.00    -0.151 NA
BRANCH   8  14
HETATM   14  C   UNL     1       2.830   6.503  19.320  0.00  0.00     0.067 A 
HETATM   15  C   UNL     1       1.591   5.834  19.306  0.00  0.00     0.061 A 
HETATM   16 CL   UNL     1       1.231   4.568  20.433  0.00  0.00    -0.082 Cl
HETATM   17  C   UNL     1       0.576   6.239  18.441  0.00  0.00     0.026 A 
HETATM   18  C   UNL     1       0.783   7.319  17.585  0.00  0.00     0.002 A 
HETATM   19  C   UNL     1       1.994   8.014  17.618  0.00  0.00     0.002 A 
HETATM   20  C   UNL     1       3.016   7.615  18.486  0.00  0.00     0.032 A 
ENDBRANCH   8  14
ENDBRANCH   1   7
BRANCH   2  21
HETATM   21  O   UNL     1       5.150   9.203  20.707  0.00  0.00    -0.360 OA
HETATM   22  H   UNL     1       4.521   9.464  20.003  0.00  0.00     0.217 HD
ENDBRANCH   2  21
BRANCH   6  23
HETATM   23  S   UNL     1       1.935   7.944  25.540  0.00  0.00     0.246 S 
HETATM   24  O   UNL     1       1.616   6.533  25.568  0.00  0.00    -0.206 OA
HETATM   25  O   UNL     1       2.563   8.572  26.681  0.00  0.00    -0.206 OA
BRANCH  23  26
HETATM   26  N   UNL     1       0.422   8.778  25.254  0.00  0.00    -0.207 NA
HETATM   27  C   UNL     1      -0.690   7.833  24.946  0.00  0.00     0.130 C 
BRANCH  26  28
HETATM   28  C   UNL     1       0.042   9.685  26.437  0.00  0.00     0.065 C 
HETATM   29  C   UNL     1      -0.758  10.922  26.016  0.00  0.00     0.027 C 
HETATM   30  C   UNL     1      -0.799   8.946  27.488  0.00  0.00     0.027 C 
ENDBRANCH  26  28
ENDBRANCH  23  26
ENDBRANCH   6  23
BRANCH   4  31
HETATM   31  O   UNL     1       3.035  10.682  24.618  0.00  0.00    -0.359 OA
HETATM   32  H   UNL     1       3.826  11.015  25.077  0.00  0.00     0.217 HD
ENDBRANCH   4  31
TORSDOF 7
ENDMDL
