MODEL 1
REMARK VINA RESULT:    -7.008      0.000      0.000
REMARK INTER + INTRA:         -10.297
REMARK INTER:                  -8.850
REMARK INTRA:                  -1.447
REMARK UNBOUND:                -1.649
REMARK  5 active torsions:
REMARK  status: ('A' for Active; 'I' for Inactive)
REMARK    1  A    between atoms: C_2  and  C_3 
REMARK    2  A    between atoms: C_8  and  N_9 
REMARK    3  A    between atoms: C_15  and  C_16 
REMARK    4  A    between atoms: C_19  and  O_20 
REMARK    5  A    between atoms: C_22  and  O_23 
ROOT
HETATM    1  N   UNL     1       7.257  13.675  25.375  0.00  0.00    -0.244 N 
HETATM    2  C   UNL     1       8.430  14.174  25.915  0.00  0.00     0.349 A 
HETATM    3  O   UNL     1       8.764  15.331  26.124  0.00  0.00    -0.245 OA
HETATM    4  N   UNL     1       9.201  13.064  26.215  0.00  0.00    -0.226 N 
HETATM    5  H   UNL     1      10.121  13.069  26.625  0.00  0.00     0.194 HD
HETATM    6  N   UNL     1       8.580  11.926  25.817  0.00  0.00    -0.151 NA
HETATM    7  C   UNL     1       7.432  12.309  25.314  0.00  0.00     0.171 A 
ENDROOT
BRANCH   7   8
HETATM    8  C   UNL     1       6.540  11.314  24.636  0.00  0.00     0.045 A 
HETATM    9  C   UNL     1       5.252  11.028  25.113  0.00  0.00     0.021 A 
HETATM   10  C   UNL     1       4.353  10.261  24.355  0.00  0.00     0.037 A 
HETATM   11  C   UNL     1       4.728   9.797  23.100  0.00  0.00     0.068 A 
HETATM   12  C   UNL     1       5.998  10.049  22.605  0.00  0.00     0.074 A 
HETATM   13  C   UNL     1       6.899  10.791  23.375  0.00  0.00     0.082 A 
BRANCH  11  14
HETATM   14  O   UNL     1       3.872   9.092  22.306  0.00  0.00    -0.361 OA
HETATM   15  H   UNL     1       3.967   8.145  22.498  0.00  0.00     0.217 HD
ENDBRANCH  11  14
BRANCH  13  16
HETATM   16  O   UNL     1       8.156  10.980  22.861  0.00  0.00    -0.360 OA
HETATM   17  H   UNL     1       8.703  10.205  23.068  0.00  0.00     0.217 HD
ENDBRANCH  13  16
ENDBRANCH   7   8
BRANCH   1  18
HETATM   18  C   UNL     1       6.204  14.518  24.979  0.00  0.00     0.052 A 
HETATM   19  C   UNL     1       6.033  14.971  23.654  0.00  0.00    -0.031 A 
HETATM   20  C   UNL     1       4.993  15.885  23.381  0.00  0.00     0.009 A 
HETATM   21  C   UNL     1       4.100  16.289  24.376  0.00  0.00     0.001 A 
HETATM   22  C   UNL     1       4.206  15.755  25.654  0.00  0.00     0.002 A 
HETATM   23  C   UNL     1       5.244  14.872  25.949  0.00  0.00     0.031 A 
BRANCH  19  24
HETATM   24  C   UNL     1       6.813  14.411  22.485  0.00  0.00     0.036 C 
HETATM   25  C   UNL     1       7.746  15.440  21.850  0.00  0.00     0.010 C 
ENDBRANCH  19  24
ENDBRANCH   1  18
TORSDOF 5
ENDMDL
MODEL 2
REMARK VINA RESULT:    -6.856      4.276      5.369
REMARK INTER + INTRA:         -10.108
REMARK INTER:                  -8.794
REMARK INTRA:                  -1.314
REMARK UNBOUND:                -1.649
REMARK  5 active torsions:
REMARK  status: ('A' for Active; 'I' for Inactive)
REMARK    1  A    between atoms: C_2  and  C_3 
REMARK    2  A    between atoms: C_8  and  N_9 
REMARK    3  A    between atoms: C_15  and  C_16 
REMARK    4  A    between atoms: C_19  and  O_20 
REMARK    5  A    between atoms: C_22  and  O_23 
ROOT
HETATM    1  N   UNL     1       3.088  12.217  25.073  0.00  0.00    -0.244 N 
HETATM    2  C   UNL     1       4.063  11.301  25.430  0.00  0.00     0.349 A 
HETATM    3  O   UNL     1       5.206  11.489  25.824  0.00  0.00    -0.245 OA
HETATM    4  N   UNL     1       3.480  10.056  25.271  0.00  0.00    -0.226 N 
HETATM    5  H   UNL     1       3.915   9.165  25.446  0.00  0.00     0.194 HD
HETATM    6  N   UNL     1       2.225  10.175  24.769  0.00  0.00    -0.151 NA
HETATM    7  C   UNL     1       2.014  11.463  24.651  0.00  0.00     0.171 A 
ENDROOT
BRANCH   7   8
HETATM    8  C   UNL     1       0.769  11.962  23.981  0.00  0.00     0.045 A 
HETATM    9  C   UNL     1       0.818  12.816  22.869  0.00  0.00     0.021 A 
HETATM   10  C   UNL     1      -0.338  13.101  22.125  0.00  0.00     0.037 A 
HETATM   11  C   UNL     1      -1.547  12.512  22.473  0.00  0.00     0.068 A 
HETATM   12  C   UNL     1      -1.633  11.675  23.575  0.00  0.00     0.074 A 
HETATM   13  C   UNL     1      -0.485  11.415  24.329  0.00  0.00     0.082 A 
BRANCH  11  14
HETATM   14  O   UNL     1      -2.685  12.719  21.750  0.00  0.00    -0.361 OA
HETATM   15  H   UNL     1      -3.266  11.946  21.843  0.00  0.00     0.217 HD
ENDBRANCH  11  14
BRANCH  13  16
HETATM   16  O   UNL     1      -0.626  10.614  25.432  0.00  0.00    -0.360 OA
HETATM   17  H   UNL     1       0.184  10.660  25.965  0.00  0.00     0.217 HD
ENDBRANCH  13  16
ENDBRANCH   7   8
BRANCH   1  18
HETATM   18  C   UNL     1       3.309  13.603  25.143  0.00  0.00     0.052 A 
HETATM   19  C   UNL     1       4.050  14.317  24.178  0.00  0.00    -0.031 A 
HETATM   20  C   UNL     1       4.286  15.692  24.389  0.00  0.00     0.009 A 
HETATM   21  C   UNL     1       3.748  16.362  25.489  0.00  0.00     0.001 A 
HETATM   22  C   UNL     1       2.929  15.679  26.378  0.00  0.00     0.002 A 
HETATM   23  C   UNL     1       2.707  14.313  26.201  0.00  0.00     0.031 A 
BRANCH  19  24
HETATM   24  C   UNL     1       4.473  13.717  22.855  0.00  0.00     0.036 C 
HETATM   25  C   UNL     1       5.983  13.503  22.760  0.00  0.00     0.010 C 
ENDBRANCH  19  24
ENDBRANCH   1  18
TORSDOF 5
ENDMDL
MODEL 3
REMARK VINA RESULT:    -6.837      1.583      1.890
REMARK INTER + INTRA:         -10.085
REMARK INTER:                  -8.458
REMARK INTRA:                  -1.627
REMARK UNBOUND:                -1.649
REMARK  5 active torsions:
REMARK  status: ('A' for Active; 'I' for Inactive)
REMARK    1  A    between atoms: C_2  and  C_3 
REMARK    2  A    between atoms: C_8  and  N_9 
REMARK    3  A    between atoms: C_15  and  C_16 
REMARK    4  A    between atoms: C_19  and  O_20 
REMARK    5  A    between atoms: C_22  and  O_23 
ROOT
HETATM    1  N   UNL     1       6.668  13.139  25.112  0.00  0.00    -0.244 N 
HETATM    2  C   UNL     1       7.308  13.359  26.320  0.00  0.00     0.349 A 
HETATM    3  O   UNL     1       7.201  14.291  27.104  0.00  0.00    -0.245 OA
HETATM    4  N   UNL     1       8.128  12.260  26.510  0.00  0.00    -0.226 N 
HETATM    5  H   UNL     1       8.737  12.098  27.296  0.00  0.00     0.194 HD
HETATM    6  N   UNL     1       8.067  11.425  25.443  0.00  0.00    -0.151 NA
HETATM    7  C   UNL     1       7.201  11.967  24.621  0.00  0.00     0.171 A 
ENDROOT
BRANCH   7   8
HETATM    8  C   UNL     1       6.993  11.382  23.257  0.00  0.00     0.045 A 
HETATM    9  C   UNL     1       5.711  11.121  22.752  0.00  0.00     0.021 A 
HETATM   10  C   UNL     1       5.521  10.777  21.404  0.00  0.00     0.037 A 
HETATM   11  C   UNL     1       6.612  10.718  20.545  0.00  0.00     0.068 A 
HETATM   12  C   UNL     1       7.894  10.955  21.016  0.00  0.00     0.074 A 
HETATM   13  C   UNL     1       8.081  11.272  22.365  0.00  0.00     0.082 A 
BRANCH  11  14
HETATM   14  O   UNL     1       6.471  10.438  19.218  0.00  0.00    -0.361 OA
HETATM   15  H   UNL     1       7.329  10.547  18.777  0.00  0.00     0.217 HD
ENDBRANCH  11  14
BRANCH  13  16
HETATM   16  O   UNL     1       9.370  11.458  22.793  0.00  0.00    -0.360 OA
HETATM   17  H   UNL     1       9.873  10.640  22.653  0.00  0.00     0.217 HD
ENDBRANCH  13  16
ENDBRANCH   7   8
BRANCH   1  18
HETATM   18  C   UNL     1       5.718  14.039  24.601  0.00  0.00     0.052 A 
HETATM   19  C   UNL     1       6.048  15.106  23.739  0.00  0.00    -0.031 A 
HETATM   20  C   UNL     1       5.030  16.004  23.354  0.00  0.00     0.009 A 
HETATM   21  C   UNL     1       3.706  15.816  23.752  0.00  0.00     0.001 A 
HETATM   22  C   UNL     1       3.366  14.704  24.510  0.00  0.00     0.002 A 
HETATM   23  C   UNL     1       4.362  13.821  24.924  0.00  0.00     0.031 A 
BRANCH  19  24
HETATM   24  C   UNL     1       7.406  15.248  23.088  0.00  0.00     0.036 C 
HETATM   25  C   UNL     1       7.433  14.716  21.656  0.00  0.00     0.010 C 
ENDBRANCH  19  24
ENDBRANCH   1  18
TORSDOF 5
ENDMDL
MODEL 4
REMARK VINA RESULT:    -6.820      2.476      3.508
REMARK INTER + INTRA:         -10.064
REMARK INTER:                  -8.845
REMARK INTRA:                  -1.219
REMARK UNBOUND:                -1.649
REMARK  5 active torsions:
REMARK  status: ('A' for Active; 'I' for Inactive)
REMARK    1  A    between atoms: C_2  and  C_3 
REMARK    2  A    between atoms: C_8  and  N_9 
REMARK    3  A    between atoms: C_15  and  C_16 
REMARK    4  A    between atoms: C_19  and  O_20 
REMARK    5  A    between atoms: C_22  and  O_23 
ROOT
HETATM    1  N   UNL     1       7.959  14.281  22.395  0.00  0.00    -0.244 N 
HETATM    2  C   UNL     1       8.721  15.299  21.849  0.00  0.00     0.349 A 
HETATM    3  O   UNL     1       9.143  16.324  22.365  0.00  0.00    -0.245 OA
HETATM    4  N   UNL     1       8.953  14.925  20.536  0.00  0.00    -0.226 N 
HETATM    5  H   UNL     1       9.480  15.443  19.851  0.00  0.00     0.194 HD
HETATM    6  N   UNL     1       8.310  13.767  20.246  0.00  0.00    -0.151 NA
HETATM    7  C   UNL     1       7.719  13.404  21.359  0.00  0.00     0.171 A 
ENDROOT
BRANCH   7   8
HETATM    8  C   UNL     1       6.787  12.231  21.366  0.00  0.00     0.045 A 
HETATM    9  C   UNL     1       5.516  12.299  21.957  0.00  0.00     0.021 A 
HETATM   10  C   UNL     1       4.576  11.273  21.771  0.00  0.00     0.037 A 
HETATM   11  C   UNL     1       4.893  10.183  20.970  0.00  0.00     0.068 A 
HETATM   12  C   UNL     1       6.144  10.078  20.383  0.00  0.00     0.074 A 
HETATM   13  C   UNL     1       7.086  11.089  20.592  0.00  0.00     0.082 A 
BRANCH  11  14
HETATM   14  O   UNL     1       3.995   9.187  20.719  0.00  0.00    -0.361 OA
HETATM   15  H   UNL     1       3.467   9.424  19.939  0.00  0.00     0.217 HD
ENDBRANCH  11  14
BRANCH  13  16
HETATM   16  O   UNL     1       8.323  10.922  20.025  0.00  0.00    -0.360 OA
HETATM   17  H   UNL     1       8.887  11.675  20.265  0.00  0.00     0.217 HD
ENDBRANCH  13  16
ENDBRANCH   7   8
BRANCH   1  18
HETATM   18  C   UNL     1       7.555  14.296  23.741  0.00  0.00     0.052 A 
HETATM   19  C   UNL     1       6.439  15.025  24.205  0.00  0.00    -0.031 A 
HETATM   20  C   UNL     1       6.172  15.042  25.590  0.00  0.00     0.009 A 
HETATM   21  C   UNL     1       6.944  14.304  26.489  0.00  0.00     0.001 A 
HETATM   22  C   UNL     1       7.973  13.501  26.015  0.00  0.00     0.002 A 
HETATM   23  C   UNL     1       8.269  13.493  24.653  0.00  0.00     0.031 A 
BRANCH  19  24
HETATM   24  C   UNL     1       5.429  15.663  23.277  0.00  0.00     0.036 C 
HETATM   25  C   UNL     1       4.152  16.089  23.998  0.00  0.00     0.010 C 
ENDBRANCH  19  24
ENDBRANCH   1  18
TORSDOF 5
ENDMDL
MODEL 5
REMARK VINA RESULT:    -6.771      1.670      2.540
REMARK INTER + INTRA:         -10.004
REMARK INTER:                  -8.641
REMARK INTRA:                  -1.363
REMARK UNBOUND:                -1.649
REMARK  5 active torsions:
REMARK  status: ('A' for Active; 'I' for Inactive)
REMARK    1  A    between atoms: C_2  and  C_3 
REMARK    2  A    between atoms: C_8  and  N_9 
REMARK    3  A    between atoms: C_15  and  C_16 
REMARK    4  A    between atoms: C_19  and  O_20 
REMARK    5  A    between atoms: C_22  and  O_23 
ROOT
HETATM    1  N   UNL     1       7.404  13.981  23.725  0.00  0.00    -0.244 N 
HETATM    2  C   UNL     1       8.666  14.544  23.644  0.00  0.00     0.349 A 
HETATM    3  O   UNL     1       9.039  15.673  23.931  0.00  0.00    -0.245 OA
HETATM    4  N   UNL     1       9.490  13.540  23.167  0.00  0.00    -0.226 N 
HETATM    5  H   UNL     1      10.479  13.611  22.990  0.00  0.00     0.194 HD
HETATM    6  N   UNL     1       8.774  12.421  22.891  0.00  0.00    -0.151 NA
HETATM    7  C   UNL     1       7.537  12.705  23.222  0.00  0.00     0.171 A 
ENDROOT
BRANCH   7   8
HETATM    8  C   UNL     1       6.436  11.738  22.910  0.00  0.00     0.045 A 
HETATM    9  C   UNL     1       5.493  11.989  21.902  0.00  0.00     0.021 A 
HETATM   10  C   UNL     1       4.604  10.989  21.478  0.00  0.00     0.037 A 
HETATM   11  C   UNL     1       4.670   9.721  22.041  0.00  0.00     0.068 A 
HETATM   12  C   UNL     1       5.580   9.443  23.049  0.00  0.00     0.074 A 
HETATM   13  C   UNL     1       6.446  10.450  23.487  0.00  0.00     0.082 A 
BRANCH  11  14
HETATM   14  O   UNL     1       3.862   8.704  21.625  0.00  0.00    -0.361 OA
HETATM   15  H   UNL     1       4.388   7.890  21.549  0.00  0.00     0.217 HD
ENDBRANCH  11  14
BRANCH  13  16
HETATM   16  O   UNL     1       7.300  10.140  24.513  0.00  0.00    -0.360 OA
HETATM   17  H   UNL     1       7.001   9.320  24.939  0.00  0.00     0.217 HD
ENDBRANCH  13  16
ENDBRANCH   7   8
BRANCH   1  18
HETATM   18  C   UNL     1       6.299  14.702  24.209  0.00  0.00     0.052 A 
HETATM   19  C   UNL     1       5.919  14.715  25.568  0.00  0.00    -0.031 A 
HETATM   20  C   UNL     1       4.742  15.401  25.934  0.00  0.00     0.009 A 
HETATM   21  C   UNL     1       3.995  16.115  24.996  0.00  0.00     0.001 A 
HETATM   22  C   UNL     1       4.432  16.190  23.680  0.00  0.00     0.002 A 
HETATM   23  C   UNL     1       5.578  15.495  23.294  0.00  0.00     0.031 A 
BRANCH  19  24
HETATM   24  C   UNL     1       6.791  14.158  26.672  0.00  0.00     0.036 C 
HETATM   25  C   UNL     1       6.580  12.661  26.893  0.00  0.00     0.010 C 
ENDBRANCH  19  24
ENDBRANCH   1  18
TORSDOF 5
ENDMDL
MODEL 6
REMARK VINA RESULT:    -6.735      4.541      6.046
REMARK INTER + INTRA:          -9.959
REMARK INTER:                  -8.740
REMARK INTRA:                  -1.220
REMARK UNBOUND:                -1.649
REMARK  5 active torsions:
REMARK  status: ('A' for Active; 'I' for Inactive)
REMARK    1  A    between atoms: C_2  and  C_3 
REMARK    2  A    between atoms: C_8  and  N_9 
REMARK    3  A    between atoms: C_15  and  C_16 
REMARK    4  A    between atoms: C_19  and  O_20 
REMARK    5  A    between atoms: C_22  and  O_23 
ROOT
HETATM    1  N   UNL     1       2.908  12.137  24.696  0.00  0.00    -0.244 N 
HETATM    2  C   UNL     1       3.746  11.158  25.201  0.00  0.00     0.349 A 
HETATM    3  O   UNL     1       4.913  11.233  25.556  0.00  0.00    -0.245 OA
HETATM    4  N   UNL     1       2.979  10.007  25.257  0.00  0.00    -0.226 N 
HETATM    5  H   UNL     1       3.281   9.102  25.580  0.00  0.00     0.194 HD
HETATM    6  N   UNL     1       1.742  10.228  24.744  0.00  0.00    -0.151 NA
HETATM    7  C   UNL     1       1.723  11.496  24.410  0.00  0.00     0.171 A 
ENDROOT
BRANCH   7   8
HETATM    8  C   UNL     1       0.548  12.058  23.667  0.00  0.00     0.045 A 
HETATM    9  C   UNL     1       0.708  12.879  22.542  0.00  0.00     0.021 A 
HETATM   10  C   UNL     1      -0.388  13.221  21.734  0.00  0.00     0.037 A 
HETATM   11  C   UNL     1      -1.650  12.721  22.033  0.00  0.00     0.068 A 
HETATM   12  C   UNL     1      -1.845  11.919  23.147  0.00  0.00     0.074 A 
HETATM   13  C   UNL     1      -0.755  11.602  23.963  0.00  0.00     0.082 A 
BRANCH  11  14
HETATM   14  O   UNL     1      -2.735  12.984  21.250  0.00  0.00    -0.361 OA
HETATM   15  H   UNL     1      -2.656  12.486  20.420  0.00  0.00     0.217 HD
ENDBRANCH  11  14
BRANCH  13  16
HETATM   16  O   UNL     1      -1.004  10.840  25.075  0.00  0.00    -0.360 OA
HETATM   17  H   UNL     1      -0.640   9.951  24.938  0.00  0.00     0.217 HD
ENDBRANCH  13  16
ENDBRANCH   7   8
BRANCH   1  18
HETATM   18  C   UNL     1       3.335  13.466  24.530  0.00  0.00     0.052 A 
HETATM   19  C   UNL     1       2.905  14.526  25.355  0.00  0.00    -0.031 A 
HETATM   20  C   UNL     1       3.326  15.837  25.048  0.00  0.00     0.009 A 
HETATM   21  C   UNL     1       4.207  16.089  23.994  0.00  0.00     0.001 A 
HETATM   22  C   UNL     1       4.714  15.030  23.252  0.00  0.00     0.002 A 
HETATM   23  C   UNL     1       4.287  13.731  23.524  0.00  0.00     0.031 A 
BRANCH  19  24
HETATM   24  C   UNL     1       2.137  14.309  26.641  0.00  0.00     0.036 C 
HETATM   25  C   UNL     1       0.624  14.338  26.437  0.00  0.00     0.010 C 
ENDBRANCH  19  24
ENDBRANCH   1  18
TORSDOF 5
ENDMDL
MODEL 7
REMARK VINA RESULT:    -6.672      1.752      2.800
REMARK INTER + INTRA:          -9.881
REMARK INTER:                  -8.415
REMARK INTRA:                  -1.467
REMARK UNBOUND:                -1.649
REMARK  5 active torsions:
REMARK  status: ('A' for Active; 'I' for Inactive)
REMARK    1  A    between atoms: C_2  and  C_3 
REMARK    2  A    between atoms: C_8  and  N_9 
REMARK    3  A    between atoms: C_15  and  C_16 
REMARK    4  A    between atoms: C_19  and  O_20 
REMARK    5  A    between atoms: C_22  and  O_23 
ROOT
HETATM    1  N   UNL     1       7.332  13.582  24.882  0.00  0.00    -0.244 N 
HETATM    2  C   UNL     1       8.114  14.050  25.925  0.00  0.00     0.349 A 
HETATM    3  O   UNL     1       7.904  14.963  26.711  0.00  0.00    -0.245 OA
HETATM    4  N   UNL     1       9.238  13.242  25.937  0.00  0.00    -0.226 N 
HETATM    5  H   UNL     1      10.015  13.309  26.575  0.00  0.00     0.194 HD
HETATM    6  N   UNL     1       9.205  12.357  24.910  0.00  0.00    -0.151 NA
HETATM    7  C   UNL     1       8.070  12.580  24.291  0.00  0.00     0.171 A 
ENDROOT
BRANCH   7   8
HETATM    8  C   UNL     1       7.767  11.874  23.004  0.00  0.00     0.045 A 
HETATM    9  C   UNL     1       6.763  10.898  22.914  0.00  0.00     0.021 A 
HETATM   10  C   UNL     1       6.346  10.402  21.669  0.00  0.00     0.037 A 
HETATM   11  C   UNL     1       6.912  10.899  20.502  0.00  0.00     0.068 A 
HETATM   12  C   UNL     1       7.916  11.853  20.556  0.00  0.00     0.074 A 
HETATM   13  C   UNL     1       8.348  12.325  21.799  0.00  0.00     0.082 A 
BRANCH  11  14
HETATM   14  O   UNL     1       6.504  10.486  19.268  0.00  0.00    -0.361 OA
HETATM   15  H   UNL     1       6.677   9.534  19.178  0.00  0.00     0.217 HD
ENDBRANCH  11  14
BRANCH  13  16
HETATM   16  O   UNL     1       9.370  13.238  21.804  0.00  0.00    -0.360 OA
HETATM   17  H   UNL     1       9.876  13.144  22.628  0.00  0.00     0.217 HD
ENDBRANCH  13  16
ENDBRANCH   7   8
BRANCH   1  18
HETATM   18  C   UNL     1       6.079  14.143  24.584  0.00  0.00     0.052 A 
HETATM   19  C   UNL     1       4.862  13.614  25.062  0.00  0.00    -0.031 A 
HETATM   20  C   UNL     1       3.653  14.202  24.632  0.00  0.00     0.009 A 
HETATM   21  C   UNL     1       3.646  15.328  23.805  0.00  0.00     0.001 A 
HETATM   22  C   UNL     1       4.848  15.910  23.426  0.00  0.00     0.002 A 
HETATM   23  C   UNL     1       6.052  15.327  23.819  0.00  0.00     0.031 A 
BRANCH  19  24
HETATM   24  C   UNL     1       4.791  12.545  26.131  0.00  0.00     0.036 C 
HETATM   25  C   UNL     1       4.343  11.192  25.584  0.00  0.00     0.010 C 
ENDBRANCH  19  24
ENDBRANCH   1  18
TORSDOF 5
ENDMDL
MODEL 8
REMARK VINA RESULT:    -6.484      2.276      4.225
REMARK INTER + INTRA:          -9.649
REMARK INTER:                  -8.000
REMARK INTRA:                  -1.649
REMARK UNBOUND:                -1.649
REMARK  5 active torsions:
REMARK  status: ('A' for Active; 'I' for Inactive)
REMARK    1  A    between atoms: C_2  and  C_3 
REMARK    2  A    between atoms: C_8  and  N_9 
REMARK    3  A    between atoms: C_15  and  C_16 
REMARK    4  A    between atoms: C_19  and  O_20 
REMARK    5  A    between atoms: C_22  and  O_23 
ROOT
HETATM    1  N   UNL     1       7.335  14.415  24.912  0.00  0.00    -0.244 N 
HETATM    2  C   UNL     1       8.392  14.278  25.796  0.00  0.00     0.349 A 
HETATM    3  O   UNL     1       9.558  13.980  25.581  0.00  0.00    -0.245 OA
HETATM    4  N   UNL     1       7.871  14.574  27.044  0.00  0.00    -0.226 N 
HETATM    5  H   UNL     1       8.374  14.571  27.917  0.00  0.00     0.194 HD
HETATM    6  N   UNL     1       6.538  14.813  26.965  0.00  0.00    -0.151 NA
HETATM    7  C   UNL     1       6.238  14.706  25.693  0.00  0.00     0.171 A 
ENDROOT
BRANCH   7   8
HETATM    8  C   UNL     1       4.806  14.763  25.253  0.00  0.00     0.045 A 
HETATM    9  C   UNL     1       4.325  15.793  24.431  0.00  0.00     0.021 A 
HETATM   10  C   UNL     1       3.046  15.721  23.855  0.00  0.00     0.037 A 
HETATM   11  C   UNL     1       2.250  14.604  24.077  0.00  0.00     0.068 A 
HETATM   12  C   UNL     1       2.689  13.576  24.895  0.00  0.00     0.074 A 
HETATM   13  C   UNL     1       3.953  13.663  25.489  0.00  0.00     0.082 A 
BRANCH  11  14
HETATM   14  O   UNL     1       1.023  14.466  23.497  0.00  0.00    -0.361 OA
HETATM   15  H   UNL     1       0.761  13.531  23.525  0.00  0.00     0.217 HD
ENDBRANCH  11  14
BRANCH  13  16
HETATM   16  O   UNL     1       4.327  12.642  26.322  0.00  0.00    -0.360 OA
HETATM   17  H   UNL     1       5.272  12.729  26.527  0.00  0.00     0.217 HD
ENDBRANCH  13  16
ENDBRANCH   7   8
BRANCH   1  18
HETATM   18  C   UNL     1       7.495  14.225  23.529  0.00  0.00     0.052 A 
HETATM   19  C   UNL     1       7.226  13.002  22.880  0.00  0.00    -0.031 A 
HETATM   20  C   UNL     1       7.504  12.893  21.500  0.00  0.00     0.009 A 
HETATM   21  C   UNL     1       7.970  13.984  20.764  0.00  0.00     0.001 A 
HETATM   22  C   UNL     1       8.130  15.216  21.385  0.00  0.00     0.002 A 
HETATM   23  C   UNL     1       7.887  15.335  22.753  0.00  0.00     0.031 A 
BRANCH  19  24
HETATM   24  C   UNL     1       6.514  11.851  23.555  0.00  0.00     0.036 C 
HETATM   25  C   UNL     1       5.223  11.454  22.841  0.00  0.00     0.010 C 
ENDBRANCH  19  24
ENDBRANCH   1  18
TORSDOF 5
ENDMDL
MODEL 9
REMARK VINA RESULT:    -6.478      2.156      5.176
REMARK INTER + INTRA:          -9.642
REMARK INTER:                  -8.376
REMARK INTRA:                  -1.266
REMARK UNBOUND:                -1.649
REMARK  5 active torsions:
REMARK  status: ('A' for Active; 'I' for Inactive)
REMARK    1  A    between atoms: C_2  and  C_3 
REMARK    2  A    between atoms: C_8  and  N_9 
REMARK    3  A    between atoms: C_15  and  C_16 
REMARK    4  A    between atoms: C_19  and  O_20 
REMARK    5  A    between atoms: C_22  and  O_23 
ROOT
HETATM    1  N   UNL     1       7.660  13.058  22.683  0.00  0.00    -0.244 N 
HETATM    2  C   UNL     1       8.938  12.885  22.179  0.00  0.00     0.349 A 
HETATM    3  O   UNL     1       9.468  11.886  21.714  0.00  0.00    -0.245 OA
HETATM    4  N   UNL     1       9.547  14.124  22.282  0.00  0.00    -0.226 N 
HETATM    5  H   UNL     1      10.488  14.353  22.002  0.00  0.00     0.194 HD
HETATM    6  N   UNL     1       8.723  15.016  22.887  0.00  0.00    -0.151 NA
HETATM    7  C   UNL     1       7.612  14.362  23.125  0.00  0.00     0.171 A 
ENDROOT
BRANCH   7   8
HETATM    8  C   UNL     1       6.520  15.004  23.926  0.00  0.00     0.045 A 
HETATM    9  C   UNL     1       5.420  15.624  23.316  0.00  0.00     0.021 A 
HETATM   10  C   UNL     1       4.307  16.029  24.070  0.00  0.00     0.037 A 
HETATM   11  C   UNL     1       4.277  15.792  25.439  0.00  0.00     0.068 A 
HETATM   12  C   UNL     1       5.354  15.195  26.076  0.00  0.00     0.074 A 
HETATM   13  C   UNL     1       6.471  14.817  25.325  0.00  0.00     0.082 A 
BRANCH  11  14
HETATM   14  O   UNL     1       3.198  16.121  26.205  0.00  0.00    -0.361 OA
HETATM   15  H   UNL     1       3.318  15.758  27.097  0.00  0.00     0.217 HD
ENDBRANCH  11  14
BRANCH  13  16
HETATM   16  O   UNL     1       7.527  14.268  26.004  0.00  0.00    -0.360 OA
HETATM   17  H   UNL     1       7.980  14.965  26.505  0.00  0.00     0.217 HD
ENDBRANCH  13  16
ENDBRANCH   7   8
BRANCH   1  18
HETATM   18  C   UNL     1       6.725  12.009  22.709  0.00  0.00     0.052 A 
HETATM   19  C   UNL     1       6.783  10.943  23.631  0.00  0.00    -0.031 A 
HETATM   20  C   UNL     1       5.845   9.896  23.513  0.00  0.00     0.009 A 
HETATM   21  C   UNL     1       4.831   9.932  22.555  0.00  0.00     0.001 A 
HETATM   22  C   UNL     1       4.711  11.035  21.721  0.00  0.00     0.002 A 
HETATM   23  C   UNL     1       5.646  12.067  21.803  0.00  0.00     0.031 A 
BRANCH  19  24
HETATM   24  C   UNL     1       7.706  10.941  24.830  0.00  0.00     0.036 C 
HETATM   25  C   UNL     1       8.793   9.873  24.737  0.00  0.00     0.010 C 
ENDBRANCH  19  24
ENDBRANCH   1  18
TORSDOF 5
ENDMDL
