MODEL 1
REMARK minimizedAffinity -4.48665285
REMARK minimizedRMSD -1
REMARK  6 active torsions:
REMARK  status: ('A' for Active; 'I' for Inactive)
REMARK    1  A    between atoms: C_9  and  C_11 
REMARK    2  A    between atoms: N_17  and  C_21 
REMARK    3  A    between atoms: C_24  and  C_25 
REMARK       I    between atoms: C_25  and  N_27 
REMARK    4  A    between atoms: C_29  and  N_30 
REMARK    5  A    between atoms: N_30  and  C_31 
REMARK    6  A    between atoms: C_34  and  O_35 
ROOT
HETATM    1  C   UNL     1       1.903   9.769  25.559  0.00  0.00     0.060 C 
HETATM    2  C   UNL     1       0.844   9.544  24.675  0.00  0.00     0.033 C 
HETATM    3  C   UNL     1       0.467  10.530  23.766  0.00  0.00     0.021 C 
HETATM    4  C   UNL     1       1.187  11.732  23.678  0.00  0.00     0.053 C 
HETATM    5  C   UNL     1       2.587  10.985  25.519  0.00  0.00     0.056 C 
HETATM    6  C   UNL     1       2.312  11.939  24.533  0.00  0.00     0.026 C 
ENDROOT
BRANCH   1   7
HETATM    7  N   UNL     1       2.380   8.698  26.366  0.00  0.00    -0.233 N 
HETATM    8  C   UNL     1       2.146   8.404  27.704  0.00  0.00     0.072 A 
HETATM    9  C   UNL     1       1.157   8.884  28.579  0.00  0.00     0.032 A 
HETATM   10  C   UNL     1       3.101   7.432  28.083  0.00  0.00     0.030 A 
HETATM   11  C   UNL     1       1.132   8.402  29.875  0.00  0.00     0.003 A 
HETATM   12  C   UNL     1       2.077   7.475  30.289  0.00  0.00     0.013 A 
HETATM   13  C   UNL     1       3.106   6.964  29.448  0.00  0.00    -0.010 A 
HETATM   14  C   UNL     1       3.814   7.206  26.852  0.00  0.00     0.065 C 
HETATM   15  N   UNL     1       3.271   7.857  25.822  0.00  0.00    -0.171 NA
HETATM   16  C   UNL     1       4.977   6.351  26.501  0.00  0.00     0.073 C 
BRANCH  13  17
HETATM   17  C   UNL     1       4.054   5.967  30.027  0.00  0.00    -0.006 A 
HETATM   18  C   UNL     1       3.713   5.027  30.987  0.00  0.00     0.129 A 
HETATM   19  N   UNL     1       4.537   4.099  31.546  0.00  0.00    -0.259 NA
HETATM   20  C   UNL     1       5.841   4.153  31.253  0.00  0.00     0.066 A 
HETATM   21  C   UNL     1       6.721   3.263  31.859  0.00  0.00     0.032 A 
HETATM   22  C   UNL     1       6.353   5.126  30.380  0.00  0.00    -0.007 A 
HETATM   23  C   UNL     1       8.103   3.368  31.681  0.00  0.00     0.002 A 
HETATM   24  C   UNL     1       8.620   4.375  30.874  0.00  0.00     0.001 A 
HETATM   25  C   UNL     1       7.750   5.236  30.205  0.00  0.00     0.014 A 
HETATM   26  C   UNL     1       5.434   5.979  29.732  0.00  0.00     0.027 A 
ENDBRANCH  13  17
ENDBRANCH   1   7
BRANCH   6  27
HETATM   27  N   UNL     1       3.162  13.087  24.437  0.00  0.00    -0.288 NA
HETATM   28  H   UNL     1       3.801  12.913  23.641  0.00  0.00     0.128 HD
BRANCH  27  29
HETATM   29  C   UNL     1       3.942  13.398  25.669  0.00  0.00     0.060 C 
HETATM   30  C   UNL     1       5.361  12.848  25.533  0.00  0.00     0.022 C 
HETATM   31  C   UNL     1       6.103  13.587  24.423  0.00  0.00     0.033 C 
HETATM   32  C   UNL     1       6.340  15.033  24.841  0.00  0.00     0.118 C 
HETATM   33  C   UNL     1       5.057  15.753  25.259  0.00  0.00     0.033 C 
HETATM   34  C   UNL     1       3.992  14.909  25.980  0.00  0.00     0.022 C 
BRANCH  32  35
HETATM   35  O   UNL     1       7.263  15.047  25.931  0.00  0.00    -0.396 OA
HETATM   36  H   UNL     1       8.032  14.512  25.664  0.00  0.00     0.210 HD
ENDBRANCH  32  35
ENDBRANCH  27  29
ENDBRANCH   6  27
BRANCH   4  37
HETATM   37  C   UNL     1       0.830  12.711  22.602  0.00  0.00     0.251 C 
HETATM   38  O   UNL     1       0.693  12.359  21.439  0.00  0.00    -0.268 OA
HETATM   39  N   UNL     1       0.613  14.019  22.961  0.00  0.00    -0.366 N 
HETATM   40  H   UNL     1       0.873  14.412  23.856  0.00  0.00     0.159 HD
HETATM   41  H   UNL     1       0.362  14.670  22.226  0.00  0.00     0.159 HD
ENDBRANCH   4  37
TORSDOF 6
ENDMDL
MODEL 2
REMARK minimizedAffinity -4.37025166
REMARK minimizedRMSD -1
REMARK  6 active torsions:
REMARK  status: ('A' for Active; 'I' for Inactive)
REMARK    1  A    between atoms: C_9  and  C_11 
REMARK    2  A    between atoms: N_17  and  C_21 
REMARK    3  A    between atoms: C_24  and  C_25 
REMARK       I    between atoms: C_25  and  N_27 
REMARK    4  A    between atoms: C_29  and  N_30 
REMARK    5  A    between atoms: N_30  and  C_31 
REMARK    6  A    between atoms: C_34  and  O_35 
ROOT
HETATM    1  C   UNL     1       2.734   7.708  28.030  0.00  0.00     0.060 C 
HETATM    2  C   UNL     1       3.094   8.079  29.329  0.00  0.00     0.033 C 
HETATM    3  C   UNL     1       3.777   7.185  30.151  0.00  0.00     0.021 C 
HETATM    4  C   UNL     1       4.173   5.929  29.664  0.00  0.00     0.053 C 
HETATM    5  C   UNL     1       3.070   6.439  27.558  0.00  0.00     0.056 C 
HETATM    6  C   UNL     1       3.866   5.571  28.316  0.00  0.00     0.026 C 
ENDROOT
BRANCH   1   7
HETATM    7  N   UNL     1       2.184   8.684  27.152  0.00  0.00    -0.233 N 
HETATM    8  C   UNL     1       0.908   9.231  27.098  0.00  0.00     0.072 A 
HETATM    9  C   UNL     1      -0.125   9.221  28.051  0.00  0.00     0.032 A 
HETATM   10  C   UNL     1       0.802   9.901  25.857  0.00  0.00     0.030 A 
HETATM   11  C   UNL     1      -1.307   9.873  27.750  0.00  0.00     0.003 A 
HETATM   12  C   UNL     1      -1.456  10.509  26.526  0.00  0.00     0.013 A 
HETATM   13  C   UNL     1      -0.448  10.541  25.522  0.00  0.00    -0.010 A 
HETATM   14  C   UNL     1       2.111   9.707  25.290  0.00  0.00     0.065 C 
HETATM   15  N   UNL     1       2.952   9.113  26.139  0.00  0.00    -0.171 NA
HETATM   16  C   UNL     1       2.716  10.093  23.989  0.00  0.00     0.073 C 
BRANCH  13  17
HETATM   17  C   UNL     1      -0.747  11.266  24.252  0.00  0.00    -0.006 A 
HETATM   18  C   UNL     1       0.207  11.629  23.314  0.00  0.00     0.129 A 
HETATM   19  N   UNL     1      -0.013  12.288  22.143  0.00  0.00    -0.259 NA
HETATM   20  C   UNL     1      -1.243  12.755  21.902  0.00  0.00     0.066 A 
HETATM   21  C   UNL     1      -1.487  13.491  20.748  0.00  0.00     0.032 A 
HETATM   22  C   UNL     1      -2.289  12.560  22.817  0.00  0.00    -0.007 A 
HETATM   23  C   UNL     1      -2.721  14.105  20.521  0.00  0.00     0.002 A 
HETATM   24  C   UNL     1      -3.739  13.975  21.459  0.00  0.00     0.001 A 
HETATM   25  C   UNL     1      -3.535  13.186  22.591  0.00  0.00     0.014 A 
HETATM   26  C   UNL     1      -2.033  11.760  23.951  0.00  0.00     0.027 A 
ENDBRANCH  13  17
ENDBRANCH   1   7
BRANCH   6  27
HETATM   27  N   UNL     1       4.322   4.357  27.709  0.00  0.00    -0.288 NA
HETATM   28  H   UNL     1       4.424   3.668  28.475  0.00  0.00     0.128 HD
BRANCH  27  29
HETATM   29  C   UNL     1       5.596   4.476  26.944  0.00  0.00     0.060 C 
HETATM   30  C   UNL     1       5.765   3.263  26.031  0.00  0.00     0.022 C 
HETATM   31  C   UNL     1       4.681   3.263  24.957  0.00  0.00     0.033 C 
HETATM   32  C   UNL     1       4.903   4.434  24.007  0.00  0.00     0.118 C 
HETATM   33  C   UNL     1       5.005   5.779  24.728  0.00  0.00     0.033 C 
HETATM   34  C   UNL     1       5.675   5.774  26.113  0.00  0.00     0.022 C 
BRANCH  32  35
HETATM   35  O   UNL     1       6.106   4.202  23.273  0.00  0.00    -0.396 OA
HETATM   36  H   UNL     1       6.045   3.307  22.894  0.00  0.00     0.210 HD
ENDBRANCH  32  35
ENDBRANCH  27  29
ENDBRANCH   6  27
BRANCH   4  37
HETATM   37  C   UNL     1       5.016   5.049  30.535  0.00  0.00     0.251 C 
HETATM   38  O   UNL     1       5.096   3.846  30.339  0.00  0.00    -0.268 OA
HETATM   39  N   UNL     1       5.740   5.637  31.544  0.00  0.00    -0.366 N 
HETATM   40  H   UNL     1       5.591   6.584  31.871  0.00  0.00     0.159 HD
HETATM   41  H   UNL     1       6.314   5.034  32.121  0.00  0.00     0.159 HD
ENDBRANCH   4  37
TORSDOF 6
ENDMDL
MODEL 3
REMARK minimizedAffinity -4.27795649
REMARK minimizedRMSD -1
REMARK  6 active torsions:
REMARK  status: ('A' for Active; 'I' for Inactive)
REMARK    1  A    between atoms: C_9  and  C_11 
REMARK    2  A    between atoms: N_17  and  C_21 
REMARK    3  A    between atoms: C_24  and  C_25 
REMARK       I    between atoms: C_25  and  N_27 
REMARK    4  A    between atoms: C_29  and  N_30 
REMARK    5  A    between atoms: N_30  and  C_31 
REMARK    6  A    between atoms: C_34  and  O_35 
ROOT
HETATM    1  C   UNL     1       3.485   7.140  27.885  0.00  0.00     0.060 C 
HETATM    2  C   UNL     1       4.071   7.421  29.123  0.00  0.00     0.033 C 
HETATM    3  C   UNL     1       4.962   6.520  29.699  0.00  0.00     0.021 C 
HETATM    4  C   UNL     1       5.338   5.352  29.016  0.00  0.00     0.053 C 
HETATM    5  C   UNL     1       3.806   5.953  27.226  0.00  0.00     0.056 C 
HETATM    6  C   UNL     1       4.793   5.092  27.721  0.00  0.00     0.026 C 
ENDROOT
BRANCH   1   7
HETATM    7  N   UNL     1       2.707   8.139  27.236  0.00  0.00    -0.233 N 
HETATM    8  C   UNL     1       1.405   8.563  27.473  0.00  0.00     0.072 A 
HETATM    9  C   UNL     1       0.573   8.358  28.587  0.00  0.00     0.032 A 
HETATM   10  C   UNL     1       1.017   9.339  26.356  0.00  0.00     0.030 A 
HETATM   11  C   UNL     1      -0.691   8.920  28.578  0.00  0.00     0.003 A 
HETATM   12  C   UNL     1      -1.116   9.656  27.482  0.00  0.00     0.013 A 
HETATM   13  C   UNL     1      -0.319   9.885  26.324  0.00  0.00    -0.010 A 
HETATM   14  C   UNL     1       2.208   9.329  25.547  0.00  0.00     0.065 C 
HETATM   15  N   UNL     1       3.236   8.738  26.160  0.00  0.00    -0.171 NA
HETATM   16  C   UNL     1       2.527   9.899  24.213  0.00  0.00     0.073 C 
BRANCH  13  17
HETATM   17  C   UNL     1      -0.905  10.698  25.220  0.00  0.00    -0.006 A 
HETATM   18  C   UNL     1      -2.257  10.752  24.918  0.00  0.00     0.129 A 
HETATM   19  N   UNL     1      -2.842  11.476  23.925  0.00  0.00    -0.259 NA
HETATM   20  C   UNL     1      -2.048  12.114  23.056  0.00  0.00     0.066 A 
HETATM   21  C   UNL     1      -2.609  12.807  21.990  0.00  0.00     0.032 A 
HETATM   22  C   UNL     1      -0.650  12.057  23.170  0.00  0.00    -0.007 A 
HETATM   23  C   UNL     1      -1.816  13.376  20.991  0.00  0.00     0.002 A 
HETATM   24  C   UNL     1      -0.432  13.261  21.060  0.00  0.00     0.001 A 
HETATM   25  C   UNL     1       0.153  12.627  22.156  0.00  0.00     0.014 A 
HETATM   26  C   UNL     1      -0.105  11.399  24.292  0.00  0.00     0.027 A 
ENDBRANCH  13  17
ENDBRANCH   1   7
BRANCH   6  27
HETATM   27  N   UNL     1       5.200   3.982  26.914  0.00  0.00    -0.288 NA
HETATM   28  H   UNL     1       5.715   3.338  27.540  0.00  0.00     0.128 HD
BRANCH  27  29
HETATM   29  C   UNL     1       6.038   4.337  25.733  0.00  0.00     0.060 C 
HETATM   30  C   UNL     1       5.888   3.266  24.654  0.00  0.00     0.022 C 
HETATM   31  C   UNL     1       4.461   3.264  24.114  0.00  0.00     0.033 C 
HETATM   32  C   UNL     1       4.202   4.555  23.346  0.00  0.00     0.118 C 
HETATM   33  C   UNL     1       4.511   5.810  24.165  0.00  0.00     0.033 C 
HETATM   34  C   UNL     1       5.690   5.723  25.149  0.00  0.00     0.022 C 
BRANCH  32  35
HETATM   35  O   UNL     1       5.009   4.552  22.168  0.00  0.00    -0.396 OA
HETATM   36  H   UNL     1       4.852   3.706  21.712  0.00  0.00     0.210 HD
ENDBRANCH  32  35
ENDBRANCH  27  29
ENDBRANCH   6  27
BRANCH   4  37
HETATM   37  C   UNL     1       6.394   4.473  29.612  0.00  0.00     0.251 C 
HETATM   38  O   UNL     1       6.642   3.370  29.149  0.00  0.00    -0.268 OA
HETATM   39  N   UNL     1       7.118   4.959  30.674  0.00  0.00    -0.366 N 
HETATM   40  H   UNL     1       6.858   5.776  31.212  0.00  0.00     0.159 HD
HETATM   41  H   UNL     1       7.837   4.360  31.063  0.00  0.00     0.159 HD
ENDBRANCH   4  37
TORSDOF 6
ENDMDL
MODEL 4
REMARK minimizedAffinity -4.19661331
REMARK minimizedRMSD -1
REMARK  6 active torsions:
REMARK  status: ('A' for Active; 'I' for Inactive)
REMARK    1  A    between atoms: C_9  and  C_11 
REMARK    2  A    between atoms: N_17  and  C_21 
REMARK    3  A    between atoms: C_24  and  C_25 
REMARK       I    between atoms: C_25  and  N_27 
REMARK    4  A    between atoms: C_29  and  N_30 
REMARK    5  A    between atoms: N_30  and  C_31 
REMARK    6  A    between atoms: C_34  and  O_35 
ROOT
HETATM    1  C   UNL     1       0.759   9.012  25.941  0.00  0.00     0.060 C 
HETATM    2  C   UNL     1      -0.316   8.544  25.179  0.00  0.00     0.033 C 
HETATM    3  C   UNL     1      -1.085   9.431  24.431  0.00  0.00     0.021 C 
HETATM    4  C   UNL     1      -0.751  10.794  24.375  0.00  0.00     0.053 C 
HETATM    5  C   UNL     1       1.062  10.374  25.939  0.00  0.00     0.056 C 
HETATM    6  C   UNL     1       0.386  11.266  25.098  0.00  0.00     0.026 C 
ENDROOT
BRANCH   1   7
HETATM    7  N   UNL     1       1.632   8.079  26.568  0.00  0.00    -0.233 N 
HETATM    8  C   UNL     1       1.856   7.818  27.914  0.00  0.00     0.072 A 
HETATM    9  C   UNL     1       1.099   8.170  29.045  0.00  0.00     0.032 A 
HETATM   10  C   UNL     1       3.035   7.040  27.990  0.00  0.00     0.030 A 
HETATM   11  C   UNL     1       1.540   7.757  30.289  0.00  0.00     0.003 A 
HETATM   12  C   UNL     1       2.712   7.023  30.401  0.00  0.00     0.013 A 
HETATM   13  C   UNL     1       3.522   6.650  29.291  0.00  0.00    -0.010 A 
HETATM   14  C   UNL     1       3.383   6.875  26.602  0.00  0.00     0.065 C 
HETATM   15  N   UNL     1       2.456   7.373  25.781  0.00  0.00    -0.171 NA
HETATM   16  C   UNL     1       4.522   6.210  25.920  0.00  0.00     0.073 C 
BRANCH  13  17
HETATM   17  C   UNL     1       4.757   5.857  29.560  0.00  0.00    -0.006 A 
HETATM   18  C   UNL     1       5.363   5.013  28.642  0.00  0.00     0.129 A 
HETATM   19  N   UNL     1       6.487   4.271  28.837  0.00  0.00    -0.259 NA
HETATM   20  C   UNL     1       7.015   4.233  30.066  0.00  0.00     0.066 A 
HETATM   21  C   UNL     1       8.123   3.432  30.317  0.00  0.00     0.032 A 
HETATM   22  C   UNL     1       6.442   4.951  31.128  0.00  0.00    -0.007 A 
HETATM   23  C   UNL     1       8.625   3.263  31.609  0.00  0.00     0.002 A 
HETATM   24  C   UNL     1       8.016   3.916  32.676  0.00  0.00     0.001 A 
HETATM   25  C   UNL     1       6.945   4.777  32.436  0.00  0.00     0.014 A 
HETATM   26  C   UNL     1       5.355   5.803  30.837  0.00  0.00     0.027 A 
ENDBRANCH  13  17
ENDBRANCH   1   7
BRANCH   6  27
HETATM   27  N   UNL     1       0.857  12.616  25.013  0.00  0.00    -0.288 NA
HETATM   28  H   UNL     1       0.017  13.213  24.907  0.00  0.00     0.128 HD
BRANCH  27  29
HETATM   29  C   UNL     1       1.822  12.877  23.907  0.00  0.00     0.060 C 
HETATM   30  C   UNL     1       2.664  14.108  24.237  0.00  0.00     0.022 C 
HETATM   31  C   UNL     1       3.549  13.827  25.447  0.00  0.00     0.033 C 
HETATM   32  C   UNL     1       4.602  12.787  25.082  0.00  0.00     0.118 C 
HETATM   33  C   UNL     1       4.000  11.509  24.493  0.00  0.00     0.033 C 
HETATM   34  C   UNL     1       2.743  11.672  23.621  0.00  0.00     0.022 C 
BRANCH  32  35
HETATM   35  O   UNL     1       5.500  13.363  24.133  0.00  0.00    -0.396 OA
HETATM   36  H   UNL     1       5.801  14.213  24.501  0.00  0.00     0.210 HD
ENDBRANCH  32  35
ENDBRANCH  27  29
ENDBRANCH   6  27
BRANCH   4  37
HETATM   37  C   UNL     1      -1.525  11.691  23.458  0.00  0.00     0.251 C 
HETATM   38  O   UNL     1      -0.971  12.335  22.579  0.00  0.00    -0.268 OA
HETATM   39  N   UNL     1      -2.890  11.741  23.599  0.00  0.00    -0.366 N 
HETATM   40  H   UNL     1      -3.391  11.378  24.401  0.00  0.00     0.159 HD
HETATM   41  H   UNL     1      -3.404  12.343  22.967  0.00  0.00     0.159 HD
ENDBRANCH   4  37
TORSDOF 6
ENDMDL
MODEL 5
REMARK minimizedAffinity -3.93290257
REMARK minimizedRMSD -1
REMARK  6 active torsions:
REMARK  status: ('A' for Active; 'I' for Inactive)
REMARK    1  A    between atoms: C_9  and  C_11 
REMARK    2  A    between atoms: N_17  and  C_21 
REMARK    3  A    between atoms: C_24  and  C_25 
REMARK       I    between atoms: C_25  and  N_27 
REMARK    4  A    between atoms: C_29  and  N_30 
REMARK    5  A    between atoms: N_30  and  C_31 
REMARK    6  A    between atoms: C_34  and  O_35 
ROOT
HETATM    1  C   UNL     1       3.398   6.910  26.496  0.00  0.00     0.060 C 
HETATM    2  C   UNL     1       4.384   6.179  25.828  0.00  0.00     0.033 C 
HETATM    3  C   UNL     1       5.130   5.220  26.509  0.00  0.00     0.021 C 
HETATM    4  C   UNL     1       4.855   4.925  27.854  0.00  0.00     0.053 C 
HETATM    5  C   UNL     1       3.158   6.666  27.849  0.00  0.00     0.056 C 
HETATM    6  C   UNL     1       3.803   5.622  28.522  0.00  0.00     0.026 C 
ENDROOT
BRANCH   1   7
HETATM    7  N   UNL     1       2.537   7.766  25.753  0.00  0.00    -0.233 N 
HETATM    8  C   UNL     1       2.764   9.029  25.220  0.00  0.00     0.072 A 
HETATM    9  C   UNL     1       3.969   9.715  24.992  0.00  0.00     0.032 A 
HETATM   10  C   UNL     1       1.500   9.556  24.865  0.00  0.00     0.030 A 
HETATM   11  C   UNL     1       3.914  10.973  24.418  0.00  0.00     0.003 A 
HETATM   12  C   UNL     1       2.688  11.533  24.091  0.00  0.00     0.013 A 
HETATM   13  C   UNL     1       1.438  10.887  24.310  0.00  0.00    -0.010 A 
HETATM   14  C   UNL     1       0.611   8.475  25.202  0.00  0.00     0.065 C 
HETATM   15  N   UNL     1       1.265   7.377  25.585  0.00  0.00    -0.171 NA
HETATM   16  C   UNL     1      -0.866   8.327  25.144  0.00  0.00     0.073 C 
BRANCH  13  17
HETATM   17  C   UNL     1       0.196  11.609  23.906  0.00  0.00    -0.006 A 
HETATM   18  C   UNL     1      -0.953  11.682  24.677  0.00  0.00     0.129 A 
HETATM   19  N   UNL     1      -2.109  12.326  24.356  0.00  0.00    -0.259 NA
HETATM   20  C   UNL     1      -2.223  12.847  23.129  0.00  0.00     0.066 A 
HETATM   21  C   UNL     1      -3.414  13.452  22.745  0.00  0.00     0.032 A 
HETATM   22  C   UNL     1      -1.178  12.752  22.197  0.00  0.00    -0.007 A 
HETATM   23  C   UNL     1      -3.620  13.892  21.435  0.00  0.00     0.002 A 
HETATM   24  C   UNL     1      -2.614  13.735  20.488  0.00  0.00     0.001 A 
HETATM   25  C   UNL     1      -1.388  13.190  20.871  0.00  0.00     0.014 A 
HETATM   26  C   UNL     1       0.041  12.187  22.628  0.00  0.00     0.027 A 
ENDBRANCH  13  17
ENDBRANCH   1   7
BRANCH   6  27
HETATM   27  N   UNL     1       3.388   5.311  29.857  0.00  0.00    -0.288 NA
HETATM   28  H   UNL     1       2.415   4.963  29.788  0.00  0.00     0.128 HD
BRANCH  27  29
HETATM   29  C   UNL     1       3.466   6.446  30.821  0.00  0.00     0.060 C 
HETATM   30  C   UNL     1       2.526   7.565  30.376  0.00  0.00     0.022 C 
HETATM   31  C   UNL     1       1.077   7.096  30.465  0.00  0.00     0.033 C 
HETATM   32  C   UNL     1       0.692   6.894  31.925  0.00  0.00     0.118 C 
HETATM   33  C   UNL     1       1.650   5.963  32.673  0.00  0.00     0.033 C 
HETATM   34  C   UNL     1       3.133   6.025  32.268  0.00  0.00     0.022 C 
BRANCH  32  35
HETATM   35  O   UNL     1       0.675   8.168  32.571  0.00  0.00    -0.396 OA
HETATM   36  H   UNL     1       0.125   8.760  32.028  0.00  0.00     0.210 HD
ENDBRANCH  32  35
ENDBRANCH  27  29
ENDBRANCH   6  27
BRANCH   4  37
HETATM   37  C   UNL     1       5.591   3.799  28.512  0.00  0.00     0.251 C 
HETATM   38  O   UNL     1       5.224   3.335  29.582  0.00  0.00    -0.268 OA
HETATM   39  N   UNL     1       6.675   3.263  27.860  0.00  0.00    -0.366 N 
HETATM   40  H   UNL     1       7.135   3.700  27.071  0.00  0.00     0.159 HD
HETATM   41  H   UNL     1       7.160   2.496  28.309  0.00  0.00     0.159 HD
ENDBRANCH   4  37
TORSDOF 6
ENDMDL
MODEL 6
REMARK minimizedAffinity -3.86605906
REMARK minimizedRMSD -1
REMARK  6 active torsions:
REMARK  status: ('A' for Active; 'I' for Inactive)
REMARK    1  A    between atoms: C_9  and  C_11 
REMARK    2  A    between atoms: N_17  and  C_21 
REMARK    3  A    between atoms: C_24  and  C_25 
REMARK       I    between atoms: C_25  and  N_27 
REMARK    4  A    between atoms: C_29  and  N_30 
REMARK    5  A    between atoms: N_30  and  C_31 
REMARK    6  A    between atoms: C_34  and  O_35 
ROOT
HETATM    1  C   UNL     1       4.229   7.598  21.609  0.00  0.00     0.060 C 
HETATM    2  C   UNL     1       4.116   7.496  20.220  0.00  0.00     0.033 C 
HETATM    3  C   UNL     1       3.743   6.290  19.631  0.00  0.00     0.021 C 
HETATM    4  C   UNL     1       3.409   5.182  20.427  0.00  0.00     0.053 C 
HETATM    5  C   UNL     1       3.957   6.484  22.405  0.00  0.00     0.056 C 
HETATM    6  C   UNL     1       3.458   5.300  21.849  0.00  0.00     0.026 C 
ENDROOT
BRANCH   1   7
HETATM    7  N   UNL     1       4.450   8.873  22.202  0.00  0.00    -0.233 N 
HETATM    8  C   UNL     1       5.594   9.659  22.246  0.00  0.00     0.072 A 
HETATM    9  C   UNL     1       6.775   9.588  21.487  0.00  0.00     0.032 A 
HETATM   10  C   UNL     1       5.365  10.661  23.218  0.00  0.00     0.030 A 
HETATM   11  C   UNL     1       7.767  10.524  21.719  0.00  0.00     0.003 A 
HETATM   12  C   UNL     1       7.588  11.498  22.691  0.00  0.00     0.013 A 
HETATM   13  C   UNL     1       6.418  11.609  23.495  0.00  0.00    -0.010 A 
HETATM   14  C   UNL     1       4.019  10.375  23.642  0.00  0.00     0.065 C 
HETATM   15  N   UNL     1       3.452   9.407  22.920  0.00  0.00    -0.171 NA
HETATM   16  C   UNL     1       3.132  10.984  24.666  0.00  0.00     0.073 C 
BRANCH  13  17
HETATM   17  C   UNL     1       6.362  12.709  24.501  0.00  0.00    -0.006 A 
HETATM   18  C   UNL     1       7.365  12.984  25.417  0.00  0.00     0.129 A 
HETATM   19  N   UNL     1       7.363  13.973  26.354  0.00  0.00    -0.259 NA
HETATM   20  C   UNL     1       6.245  14.690  26.514  0.00  0.00     0.066 A 
HETATM   21  C   UNL     1       6.186  15.662  27.506  0.00  0.00     0.032 A 
HETATM   22  C   UNL     1       5.105  14.449  25.731  0.00  0.00    -0.007 A 
HETATM   23  C   UNL     1       5.000  16.342  27.792  0.00  0.00     0.002 A 
HETATM   24  C   UNL     1       3.848  16.055  27.067  0.00  0.00     0.001 A 
HETATM   25  C   UNL     1       3.904  15.131  26.023  0.00  0.00     0.014 A 
HETATM   26  C   UNL     1       5.208  13.500  24.692  0.00  0.00     0.027 A 
ENDBRANCH  13  17
ENDBRANCH   1   7
BRANCH   6  27
HETATM   27  N   UNL     1       3.035   4.256  22.732  0.00  0.00    -0.288 NA
HETATM   28  H   UNL     1       3.077   3.376  22.187  0.00  0.00     0.128 HD
BRANCH  27  29
HETATM   29  C   UNL     1       1.675   4.439  23.317  0.00  0.00     0.060 C 
HETATM   30  C   UNL     1       1.348   3.265  24.238  0.00  0.00     0.022 C 
HETATM   31  C   UNL     1       2.280   3.272  25.446  0.00  0.00     0.033 C 
HETATM   32  C   UNL     1       1.975   4.481  26.321  0.00  0.00     0.118 C 
HETATM   33  C   UNL     1       2.014   5.803  25.550  0.00  0.00     0.033 C 
HETATM   34  C   UNL     1       1.532   5.767  24.090  0.00  0.00     0.022 C 
BRANCH  32  35
HETATM   35  O   UNL     1       0.679   4.311  26.896  0.00  0.00    -0.396 OA
HETATM   36  H   UNL     1       0.659   3.429  27.307  0.00  0.00     0.210 HD
ENDBRANCH  32  35
ENDBRANCH  27  29
ENDBRANCH   6  27
BRANCH   4  37
HETATM   37  C   UNL     1       2.891   3.944  19.761  0.00  0.00     0.251 C 
HETATM   38  O   UNL     1       2.014   3.264  20.273  0.00  0.00    -0.268 OA
HETATM   39  N   UNL     1       3.395   3.612  18.527  0.00  0.00    -0.366 N 
HETATM   40  H   UNL     1       4.229   4.021  18.126  0.00  0.00     0.159 HD
HETATM   41  H   UNL     1       3.029   2.779  18.081  0.00  0.00     0.159 HD
ENDBRANCH   4  37
TORSDOF 6
ENDMDL
MODEL 7
REMARK minimizedAffinity -3.07179403
REMARK minimizedRMSD -1
REMARK  6 active torsions:
REMARK  status: ('A' for Active; 'I' for Inactive)
REMARK    1  A    between atoms: C_9  and  C_11 
REMARK    2  A    between atoms: N_17  and  C_21 
REMARK    3  A    between atoms: C_24  and  C_25 
REMARK       I    between atoms: C_25  and  N_27 
REMARK    4  A    between atoms: C_29  and  N_30 
REMARK    5  A    between atoms: N_30  and  C_31 
REMARK    6  A    between atoms: C_34  and  O_35 
ROOT
HETATM    1  C   UNL     1       3.751   6.992  26.307  0.00  0.00     0.060 C 
HETATM    2  C   UNL     1       4.841   6.239  25.860  0.00  0.00     0.033 C 
HETATM    3  C   UNL     1       5.453   5.319  26.707  0.00  0.00     0.021 C 
HETATM    4  C   UNL     1       4.941   5.083  27.993  0.00  0.00     0.053 C 
HETATM    5  C   UNL     1       3.273   6.808  27.605  0.00  0.00     0.056 C 
HETATM    6  C   UNL     1       3.786   5.801  28.430  0.00  0.00     0.026 C 
ENDROOT
BRANCH   1   7
HETATM    7  N   UNL     1       3.038   7.807  25.383  0.00  0.00    -0.233 N 
HETATM    8  C   UNL     1       3.327   9.071  24.886  0.00  0.00     0.072 A 
HETATM    9  C   UNL     1       4.529   9.801  24.905  0.00  0.00     0.032 A 
HETATM   10  C   UNL     1       2.150   9.547  24.263  0.00  0.00     0.030 A 
HETATM   11  C   UNL     1       4.553  11.048  24.308  0.00  0.00     0.003 A 
HETATM   12  C   UNL     1       3.405  11.558  23.720  0.00  0.00     0.013 A 
HETATM   13  C   UNL     1       2.160  10.868  23.682  0.00  0.00    -0.010 A 
HETATM   14  C   UNL     1       1.247   8.436  24.426  0.00  0.00     0.065 C 
HETATM   15  N   UNL     1       1.844   7.368  24.959  0.00  0.00    -0.171 NA
HETATM   16  C   UNL     1      -0.178   8.232  24.060  0.00  0.00     0.073 C 
BRANCH  13  17
HETATM   17  C   UNL     1       1.007  11.538  23.013  0.00  0.00    -0.006 A 
HETATM   18  C   UNL     1       1.097  12.255  21.831  0.00  0.00     0.129 A 
HETATM   19  N   UNL     1       0.079  12.883  21.180  0.00  0.00    -0.259 NA
HETATM   20  C   UNL     1      -1.116  12.937  21.780  0.00  0.00     0.066 A 
HETATM   21  C   UNL     1      -2.160  13.628  21.175  0.00  0.00     0.032 A 
HETATM   22  C   UNL     1      -1.329  12.349  23.037  0.00  0.00    -0.007 A 
HETATM   23  C   UNL     1      -3.382  13.819  21.824  0.00  0.00     0.002 A 
HETATM   24  C   UNL     1      -3.573  13.301  23.100  0.00  0.00     0.001 A 
HETATM   25  C   UNL     1      -2.562  12.547  23.696  0.00  0.00     0.014 A 
HETATM   26  C   UNL     1      -0.273  11.603  23.603  0.00  0.00     0.027 A 
ENDBRANCH  13  17
ENDBRANCH   1   7
BRANCH   6  27
HETATM   27  N   UNL     1       3.140   5.547  29.682  0.00  0.00    -0.288 NA
HETATM   28  H   UNL     1       2.142   5.369  29.466  0.00  0.00     0.128 HD
BRANCH  27  29
HETATM   29  C   UNL     1       3.264   6.641  30.688  0.00  0.00     0.060 C 
HETATM   30  C   UNL     1       2.289   7.766  30.349  0.00  0.00     0.022 C 
HETATM   31  C   UNL     1       0.852   7.276  30.504  0.00  0.00     0.033 C 
HETATM   32  C   UNL     1       0.558   7.007  31.975  0.00  0.00     0.118 C 
HETATM   33  C   UNL     1       1.568   6.057  32.622  0.00  0.00     0.033 C 
HETATM   34  C   UNL     1       3.023   6.154  32.133  0.00  0.00     0.022 C 
BRANCH  32  35
HETATM   35  O   UNL     1       0.568   8.252  32.675  0.00  0.00    -0.396 OA
HETATM   36  H   UNL     1      -0.020   8.860  32.192  0.00  0.00     0.210 HD
ENDBRANCH  32  35
ENDBRANCH  27  29
ENDBRANCH   6  27
BRANCH   4  37
HETATM   37  C   UNL     1       5.548   3.994  28.824  0.00  0.00     0.251 C 
HETATM   38  O   UNL     1       6.751   3.779  28.813  0.00  0.00    -0.268 OA
HETATM   39  N   UNL     1       4.720   3.263  29.641  0.00  0.00    -0.366 N 
HETATM   40  H   UNL     1       3.710   3.267  29.575  0.00  0.00     0.159 HD
HETATM   41  H   UNL     1       5.143   2.536  30.206  0.00  0.00     0.159 HD
ENDBRANCH   4  37
TORSDOF 6
ENDMDL
MODEL 8
REMARK minimizedAffinity -2.97198129
REMARK minimizedRMSD -1
REMARK  6 active torsions:
REMARK  status: ('A' for Active; 'I' for Inactive)
REMARK    1  A    between atoms: C_9  and  C_11 
REMARK    2  A    between atoms: N_17  and  C_21 
REMARK    3  A    between atoms: C_24  and  C_25 
REMARK       I    between atoms: C_25  and  N_27 
REMARK    4  A    between atoms: C_29  and  N_30 
REMARK    5  A    between atoms: N_30  and  C_31 
REMARK    6  A    between atoms: C_34  and  O_35 
ROOT
HETATM    1  C   UNL     1       0.909   9.471  26.051  0.00  0.00     0.060 C 
HETATM    2  C   UNL     1      -0.058   8.770  25.325  0.00  0.00     0.033 C 
HETATM    3  C   UNL     1      -0.940   9.450  24.490  0.00  0.00     0.021 C 
HETATM    4  C   UNL     1      -0.825  10.839  24.311  0.00  0.00     0.053 C 
HETATM    5  C   UNL     1       0.992  10.858  25.926  0.00  0.00     0.056 C 
HETATM    6  C   UNL     1       0.204  11.550  24.999  0.00  0.00     0.026 C 
ENDROOT
BRANCH   1   7
HETATM    7  N   UNL     1       1.904   8.750  26.770  0.00  0.00    -0.233 N 
HETATM    8  C   UNL     1       2.802   7.781  26.340  0.00  0.00     0.072 A 
HETATM    9  C   UNL     1       3.208   7.433  25.041  0.00  0.00     0.032 A 
HETATM   10  C   UNL     1       3.333   7.171  27.501  0.00  0.00     0.030 A 
HETATM   11  C   UNL     1       4.151   6.432  24.890  0.00  0.00     0.003 A 
HETATM   12  C   UNL     1       4.665   5.789  26.006  0.00  0.00     0.013 A 
HETATM   13  C   UNL     1       4.281   6.094  27.344  0.00  0.00    -0.010 A 
HETATM   14  C   UNL     1       2.692   7.911  28.557  0.00  0.00     0.065 C 
HETATM   15  N   UNL     1       1.967   8.933  28.097  0.00  0.00    -0.171 NA
HETATM   16  C   UNL     1       2.733   7.798  30.038  0.00  0.00     0.073 C 
BRANCH  13  17
HETATM   17  C   UNL     1       4.919   5.322  28.449  0.00  0.00    -0.006 A 
HETATM   18  C   UNL     1       4.247   4.430  29.271  0.00  0.00     0.129 A 
HETATM   19  N   UNL     1       4.781   3.702  30.290  0.00  0.00    -0.259 NA
HETATM   20  C   UNL     1       6.050   3.940  30.640  0.00  0.00     0.066 A 
HETATM   21  C   UNL     1       6.606   3.263  31.719  0.00  0.00     0.032 A 
HETATM   22  C   UNL     1       6.824   4.899  29.968  0.00  0.00    -0.007 A 
HETATM   23  C   UNL     1       7.881   3.574  32.198  0.00  0.00     0.002 A 
HETATM   24  C   UNL     1       8.624   4.574  31.580  0.00  0.00     0.001 A 
HETATM   25  C   UNL     1       8.111   5.218  30.454  0.00  0.00     0.014 A 
HETATM   26  C   UNL     1       6.259   5.530  28.839  0.00  0.00     0.027 A 
ENDBRANCH  13  17
ENDBRANCH   1   7
BRANCH   6  27
HETATM   27  N   UNL     1       0.457  12.945  24.793  0.00  0.00    -0.288 NA
HETATM   28  H   UNL     1      -0.452  13.372  24.538  0.00  0.00     0.128 HD
BRANCH  27  29
HETATM   29  C   UNL     1       1.484  13.253  23.757  0.00  0.00     0.060 C 
HETATM   30  C   UNL     1       2.355  14.417  24.225  0.00  0.00     0.022 C 
HETATM   31  C   UNL     1       3.168  14.004  25.448  0.00  0.00     0.033 C 
HETATM   32  C   UNL     1       4.197  12.954  25.049  0.00  0.00     0.118 C 
HETATM   33  C   UNL     1       3.577  11.752  24.331  0.00  0.00     0.033 C 
HETATM   34  C   UNL     1       2.372  12.036  23.418  0.00  0.00     0.022 C 
BRANCH  32  35
HETATM   35  O   UNL     1       5.162  13.565  24.193  0.00  0.00    -0.396 OA
HETATM   36  H   UNL     1       5.477  14.371  24.642  0.00  0.00     0.210 HD
ENDBRANCH  32  35
ENDBRANCH  27  29
ENDBRANCH   6  27
BRANCH   4  37
HETATM   37  C   UNL     1      -1.709  11.513  23.308  0.00  0.00     0.251 C 
HETATM   38  O   UNL     1      -1.248  12.048  22.310  0.00  0.00    -0.268 OA
HETATM   39  N   UNL     1      -3.067  11.479  23.512  0.00  0.00    -0.366 N 
HETATM   40  H   UNL     1      -3.503  11.213  24.386  0.00  0.00     0.159 HD
HETATM   41  H   UNL     1      -3.656  11.930  22.822  0.00  0.00     0.159 HD
ENDBRANCH   4  37
TORSDOF 6
ENDMDL
MODEL 9
REMARK minimizedAffinity -2.7452755
REMARK minimizedRMSD -1
REMARK  6 active torsions:
REMARK  status: ('A' for Active; 'I' for Inactive)
REMARK    1  A    between atoms: C_9  and  C_11 
REMARK    2  A    between atoms: N_17  and  C_21 
REMARK    3  A    between atoms: C_24  and  C_25 
REMARK       I    between atoms: C_25  and  N_27 
REMARK    4  A    between atoms: C_29  and  N_30 
REMARK    5  A    between atoms: N_30  and  C_31 
REMARK    6  A    between atoms: C_34  and  O_35 
ROOT
HETATM    1  C   UNL     1       4.076   7.264  24.598  0.00  0.00     0.060 C 
HETATM    2  C   UNL     1       4.599   6.852  23.368  0.00  0.00     0.033 C 
HETATM    3  C   UNL     1       5.474   5.770  23.305  0.00  0.00     0.021 C 
HETATM    4  C   UNL     1       5.787   5.036  24.461  0.00  0.00     0.053 C 
HETATM    5  C   UNL     1       4.429   6.578  25.760  0.00  0.00     0.056 C 
HETATM    6  C   UNL     1       5.202   5.412  25.708  0.00  0.00     0.026 C 
ENDROOT
BRANCH   1   7
HETATM    7  N   UNL     1       3.062   8.262  24.627  0.00  0.00    -0.233 N 
HETATM    8  C   UNL     1       1.711   8.165  24.935  0.00  0.00     0.072 A 
HETATM    9  C   UNL     1       1.000   7.143  25.588  0.00  0.00     0.032 A 
HETATM   10  C   UNL     1       1.104   9.367  24.503  0.00  0.00     0.030 A 
HETATM   11  C   UNL     1      -0.358   7.311  25.793  0.00  0.00     0.003 A 
HETATM   12  C   UNL     1      -0.990   8.463  25.349  0.00  0.00     0.013 A 
HETATM   13  C   UNL     1      -0.320   9.524  24.673  0.00  0.00    -0.010 A 
HETATM   14  C   UNL     1       2.227  10.112  23.994  0.00  0.00     0.065 C 
HETATM   15  N   UNL     1       3.390   9.495  24.215  0.00  0.00    -0.171 NA
HETATM   16  C   UNL     1       2.345  11.440  23.340  0.00  0.00     0.073 C 
BRANCH  13  17
HETATM   17  C   UNL     1      -1.127  10.706  24.253  0.00  0.00    -0.006 A 
HETATM   18  C   UNL     1      -2.110  11.300  25.029  0.00  0.00     0.129 A 
HETATM   19  N   UNL     1      -2.872  12.377  24.694  0.00  0.00    -0.259 NA
HETATM   20  C   UNL     1      -2.774  12.858  23.450  0.00  0.00     0.066 A 
HETATM   21  C   UNL     1      -3.586  13.914  23.052  0.00  0.00     0.032 A 
HETATM   22  C   UNL     1      -1.898  12.285  22.513  0.00  0.00    -0.007 A 
HETATM   23  C   UNL     1      -3.608  14.361  21.729  0.00  0.00     0.002 A 
HETATM   24  C   UNL     1      -2.795  13.749  20.781  0.00  0.00     0.001 A 
HETATM   25  C   UNL     1      -1.924  12.732  21.174  0.00  0.00     0.014 A 
HETATM   26  C   UNL     1      -1.042  11.255  22.956  0.00  0.00     0.027 A 
ENDBRANCH  13  17
ENDBRANCH   1   7
BRANCH   6  27
HETATM   27  N   UNL     1       5.384   4.658  26.912  0.00  0.00    -0.288 NA
HETATM   28  H   UNL     1       4.835   3.787  26.797  0.00  0.00     0.128 HD
BRANCH  27  29
HETATM   29  C   UNL     1       4.983   5.364  28.163  0.00  0.00     0.060 C 
HETATM   30  C   UNL     1       4.253   4.394  29.090  0.00  0.00     0.022 C 
HETATM   31  C   UNL     1       5.209   3.304  29.564  0.00  0.00     0.033 C 
HETATM   32  C   UNL     1       6.267   3.911  30.478  0.00  0.00     0.118 C 
HETATM   33  C   UNL     1       7.003   5.091  29.838  0.00  0.00     0.033 C 
HETATM   34  C   UNL     1       6.182   5.995  28.902  0.00  0.00     0.022 C 
BRANCH  32  35
HETATM   35  O   UNL     1       5.632   4.349  31.679  0.00  0.00    -0.396 OA
HETATM   36  H   UNL     1       5.106   3.602  32.017  0.00  0.00     0.210 HD
ENDBRANCH  32  35
ENDBRANCH  27  29
ENDBRANCH   6  27
BRANCH   4  37
HETATM   37  C   UNL     1       6.628   3.804  24.329  0.00  0.00     0.251 C 
HETATM   38  O   UNL     1       7.124   3.263  25.306  0.00  0.00    -0.268 OA
HETATM   39  N   UNL     1       6.795   3.263  23.077  0.00  0.00    -0.366 N 
HETATM   40  H   UNL     1       6.564   3.743  22.216  0.00  0.00     0.159 HD
HETATM   41  H   UNL     1       7.357   2.424  23.001  0.00  0.00     0.159 HD
ENDBRANCH   4  37
TORSDOF 6
ENDMDL
