MODEL 1
REMARK VINA RESULT:   -11.275      0.000      0.000
REMARK INTER + INTRA:         -15.588
REMARK INTER:                 -13.642
REMARK INTRA:                  -1.946
REMARK UNBOUND:                -1.346
REMARK  5 active torsions:
REMARK  status: ('A' for Active; 'I' for Inactive)
REMARK       I    between atoms: N_8  and  C_10 
REMARK    1  A    between atoms: C_10  and  C_12 
REMARK    2  A    between atoms: C_14  and  N_15 
REMARK    3  A    between atoms: C_21  and  C_23 
REMARK    4  A    between atoms: C_28  and  S_29 
REMARK    5  A    between atoms: S_29  and  N_32 
ROOT
HETATM    1  C   UNL     1       4.252   7.634  22.414  0.00  0.00     0.156 A 
HETATM    2  N   UNL     1       4.183   7.346  21.084  0.00  0.00    -0.057 NA
HETATM    3  C   UNL     1       3.429   6.315  20.740  0.00  0.00     0.721 A 
HETATM    4  N   UNL     1       2.754   5.573  21.618  0.00  0.00    -0.063 NA
HETATM    5  C   UNL     1       2.824   5.871  22.937  0.00  0.00     0.088 A 
HETATM    6  C   UNL     1       3.547   6.941  23.445  0.00  0.00     0.029 A 
HETATM    7  C   UNL     1       2.164   5.058  23.862  0.00  0.00     0.034 A 
HETATM    8  C   UNL     1       2.181   5.267  25.271  0.00  0.00     0.014 A 
HETATM    9  C   UNL     1       2.854   6.343  25.856  0.00  0.00    -0.023 A 
HETATM   10  C   UNL     1       3.503   7.182  24.901  0.00  0.00     0.028 A 
ENDROOT
BRANCH   9  11
HETATM   11  C   UNL     1       2.808   6.643  27.357  0.00  0.00    -0.003 A 
HETATM   12  C   UNL     1       3.739   5.990  28.208  0.00  0.00     0.014 A 
HETATM   13  C   UNL     1       3.832   6.215  29.607  0.00  0.00     0.001 A 
HETATM   14  C   UNL     1       3.060   7.168  30.237  0.00  0.00     0.002 A 
HETATM   15  C   UNL     1       2.109   7.823  29.457  0.00  0.00     0.026 A 
HETATM   16  C   UNL     1       1.946   7.530  28.065  0.00  0.00     0.090 A 
BRANCH  16  17
HETATM   17  S   UNL     1       0.365   8.128  27.491  0.00  0.00     0.261 S 
HETATM   18  O   UNL     1      -0.510   6.999  27.291  0.00  0.00    -0.200 OA
HETATM   19  O   UNL     1      -0.057   9.303  28.208  0.00  0.00    -0.200 OA
BRANCH  17  20
HETATM   20  N   UNL     1       0.816   8.727  25.956  0.00  0.00    -0.303 N 
HETATM   21  C   UNL     1       1.509  10.037  25.925  0.00  0.00     0.163 C 
HETATM   22  C   UNL     1       0.620  11.230  25.544  0.00  0.00     0.255 C 
HETATM   23  N   UNL     1      -0.460  10.947  24.508  0.00  0.00    -0.072 N 
HETATM   24  H   UNL     1      -0.019  11.106  23.592  0.00  0.00     0.279 HD
HETATM   25  C   UNL     1      -1.603  11.935  24.615  0.00  0.00     0.269 C 
HETATM   26  C   UNL     1      -1.037   9.541  24.493  0.00  0.00     0.255 C 
HETATM   27  C   UNL     1      -0.023   8.437  24.782  0.00  0.00     0.163 C 
ENDBRANCH  17  20
ENDBRANCH  16  17
ENDBRANCH   9  11
BRANCH   1  28
HETATM   28  C   UNL     1       5.343   8.618  22.767  0.00  0.00     0.274 C 
HETATM   29  N   UNL     1       5.093   9.986  22.863  0.00  0.00    -0.342 N 
HETATM   30  C   UNL     1       3.809  10.683  22.846  0.00  0.00     0.161 C 
HETATM   31  C   UNL     1       6.179  10.933  23.114  0.00  0.00     0.139 C 
HETATM   32  C   UNL     1       4.095  11.900  23.684  0.00  0.00    -0.056 C 
HETATM   33  C   UNL     1       3.255  12.868  24.091  0.00  0.00    -0.018 C 
HETATM   34  C   UNL     1       5.562  11.958  24.055  0.00  0.00     0.056 C 
HETATM   35  C   UNL     1       3.784  14.081  24.828  0.00  0.00     0.054 C 
HETATM   36  C   UNL     1       5.241  14.352  24.508  0.00  0.00    -0.026 C 
HETATM   37  C   UNL     1       6.069  13.374  24.087  0.00  0.00    -0.020 C 
HETATM   38  O   UNL     1       6.486   8.178  22.919  0.00  0.00    -0.266 OA
ENDBRANCH   1  28
BRANCH   3  39
HETATM   39  N   UNL     1       3.372   5.991  19.402  0.00  0.00    -0.231 N 
HETATM   40  H   UNL     1       2.441   6.023  19.011  0.00  0.00     0.174 HD
HETATM   41  H   UNL     1       3.972   5.223  19.143  0.00  0.00     0.174 HD
ENDBRANCH   3  39
TORSDOF 5
ENDMDL
MODEL 2
REMARK VINA RESULT:   -10.703      1.196      1.436
REMARK INTER + INTRA:         -14.865
REMARK INTER:                 -12.718
REMARK INTRA:                  -2.147
REMARK UNBOUND:                -1.346
REMARK  5 active torsions:
REMARK  status: ('A' for Active; 'I' for Inactive)
REMARK       I    between atoms: N_8  and  C_10 
REMARK    1  A    between atoms: C_10  and  C_12 
REMARK    2  A    between atoms: C_14  and  N_15 
REMARK    3  A    between atoms: C_21  and  C_23 
REMARK    4  A    between atoms: C_28  and  S_29 
REMARK    5  A    between atoms: S_29  and  N_32 
ROOT
HETATM    1  C   UNL     1       4.312   5.812  22.803  0.00  0.00     0.156 A 
HETATM    2  N   UNL     1       4.289   5.241  21.567  0.00  0.00    -0.057 NA
HETATM    3  C   UNL     1       3.443   4.238  21.394  0.00  0.00     0.721 A 
HETATM    4  N   UNL     1       2.637   3.783  22.353  0.00  0.00    -0.063 NA
HETATM    5  C   UNL     1       2.663   4.362  23.577  0.00  0.00     0.088 A 
HETATM    6  C   UNL     1       3.473   5.442  23.899  0.00  0.00     0.029 A 
HETATM    7  C   UNL     1       1.861   3.848  24.599  0.00  0.00     0.034 A 
HETATM    8  C   UNL     1       1.818   4.366  25.925  0.00  0.00     0.014 A 
HETATM    9  C   UNL     1       2.575   5.475  26.315  0.00  0.00    -0.023 A 
HETATM   10  C   UNL     1       3.370   6.008  25.258  0.00  0.00     0.028 A 
ENDROOT
BRANCH   9  11
HETATM   11  C   UNL     1       2.474   6.108  27.706  0.00  0.00    -0.003 A 
HETATM   12  C   UNL     1       3.301   5.600  28.743  0.00  0.00     0.014 A 
HETATM   13  C   UNL     1       3.339   6.128  30.061  0.00  0.00     0.001 A 
HETATM   14  C   UNL     1       2.618   7.250  30.409  0.00  0.00     0.002 A 
HETATM   15  C   UNL     1       1.767   7.777  29.439  0.00  0.00     0.026 A 
HETATM   16  C   UNL     1       1.654   7.190  28.139  0.00  0.00     0.090 A 
BRANCH  16  17
HETATM   17  S   UNL     1       0.161   7.752  27.337  0.00  0.00     0.261 S 
HETATM   18  O   UNL     1      -0.672   6.608  27.059  0.00  0.00    -0.200 OA
HETATM   19  O   UNL     1      -0.361   8.946  27.951  0.00  0.00    -0.200 OA
BRANCH  17  20
HETATM   20  N   UNL     1       0.812   8.306  25.857  0.00  0.00    -0.303 N 
HETATM   21  C   UNL     1       1.788   9.419  25.930  0.00  0.00     0.163 C 
HETATM   22  C   UNL     1       1.216  10.804  25.589  0.00  0.00     0.255 C 
HETATM   23  N   UNL     1       0.152  10.831  24.500  0.00  0.00    -0.072 N 
HETATM   24  H   UNL     1       0.662  10.929  23.612  0.00  0.00     0.279 HD
HETATM   25  C   UNL     1      -0.738  12.051  24.625  0.00  0.00     0.269 C 
HETATM   26  C   UNL     1      -0.732   9.600  24.380  0.00  0.00     0.255 C 
HETATM   27  C   UNL     1      -0.013   8.278  24.639  0.00  0.00     0.163 C 
ENDBRANCH  17  20
ENDBRANCH  16  17
ENDBRANCH   9  11
BRANCH   1  28
HETATM   28  C   UNL     1       5.485   6.739  23.023  0.00  0.00     0.274 C 
HETATM   29  N   UNL     1       5.371   8.118  22.859  0.00  0.00    -0.342 N 
HETATM   30  C   UNL     1       4.164   8.917  22.658  0.00  0.00     0.161 C 
HETATM   31  C   UNL     1       6.540   8.989  22.986  0.00  0.00     0.139 C 
HETATM   32  C   UNL     1       4.548  10.235  23.275  0.00  0.00    -0.056 C 
HETATM   33  C   UNL     1       3.798  11.336  23.462  0.00  0.00    -0.018 C 
HETATM   34  C   UNL     1       6.002  10.223  23.697  0.00  0.00     0.056 C 
HETATM   35  C   UNL     1       4.425  12.609  23.992  0.00  0.00     0.054 C 
HETATM   36  C   UNL     1       5.910  12.679  23.696  0.00  0.00    -0.026 C 
HETATM   37  C   UNL     1       6.647  11.567  23.497  0.00  0.00    -0.020 C 
HETATM   38  O   UNL     1       6.574   6.229  23.304  0.00  0.00    -0.266 OA
ENDBRANCH   1  28
BRANCH   3  39
HETATM   39  N   UNL     1       3.428   3.629  20.159  0.00  0.00    -0.231 N 
HETATM   40  H   UNL     1       3.781   2.683  20.163  0.00  0.00     0.174 HD
HETATM   41  H   UNL     1       3.701   4.236  19.401  0.00  0.00     0.174 HD
ENDBRANCH   3  39
TORSDOF 5
ENDMDL
MODEL 3
REMARK VINA RESULT:   -10.397      2.203      7.830
REMARK INTER + INTRA:         -14.478
REMARK INTER:                 -12.760
REMARK INTRA:                  -1.718
REMARK UNBOUND:                -1.346
REMARK  5 active torsions:
REMARK  status: ('A' for Active; 'I' for Inactive)
REMARK       I    between atoms: N_8  and  C_10 
REMARK    1  A    between atoms: C_10  and  C_12 
REMARK    2  A    between atoms: C_14  and  N_15 
REMARK    3  A    between atoms: C_21  and  C_23 
REMARK    4  A    between atoms: C_28  and  S_29 
REMARK    5  A    between atoms: S_29  and  N_32 
ROOT
HETATM    1  C   UNL     1      -0.508   9.690  27.067  0.00  0.00     0.156 A 
HETATM    2  N   UNL     1      -1.789   9.934  27.461  0.00  0.00    -0.057 NA
HETATM    3  C   UNL     1      -2.422  10.918  26.843  0.00  0.00     0.721 A 
HETATM    4  N   UNL     1      -1.870  11.655  25.878  0.00  0.00    -0.063 NA
HETATM    5  C   UNL     1      -0.597  11.400  25.490  0.00  0.00     0.088 A 
HETATM    6  C   UNL     1       0.179  10.381  26.022  0.00  0.00     0.029 A 
HETATM    7  C   UNL     1       0.001  12.209  24.521  0.00  0.00     0.034 A 
HETATM    8  C   UNL     1       1.334  12.044  24.047  0.00  0.00     0.014 A 
HETATM    9  C   UNL     1       2.165  11.018  24.506  0.00  0.00    -0.023 A 
HETATM   10  C   UNL     1       1.536  10.182  25.476  0.00  0.00     0.028 A 
ENDROOT
BRANCH   9  11
HETATM   11  C   UNL     1       3.567  10.762  23.944  0.00  0.00    -0.003 A 
HETATM   12  C   UNL     1       4.373  11.879  23.599  0.00  0.00     0.014 A 
HETATM   13  C   UNL     1       5.704  11.780  23.114  0.00  0.00     0.001 A 
HETATM   14  C   UNL     1       6.349  10.566  23.021  0.00  0.00     0.002 A 
HETATM   15  C   UNL     1       5.599   9.430  23.322  0.00  0.00     0.026 A 
HETATM   16  C   UNL     1       4.226   9.519  23.720  0.00  0.00     0.090 A 
BRANCH  16  17
HETATM   17  S   UNL     1       3.428   7.933  23.535  0.00  0.00     0.261 S 
HETATM   18  O   UNL     1       3.563   7.202  24.771  0.00  0.00    -0.200 OA
HETATM   19  O   UNL     1       2.169   8.042  22.846  0.00  0.00    -0.200 OA
BRANCH  17  20
HETATM   20  N   UNL     1       4.464   7.216  22.380  0.00  0.00    -0.303 N 
HETATM   21  C   UNL     1       3.988   7.193  20.976  0.00  0.00     0.163 C 
HETATM   22  C   UNL     1       3.407   5.848  20.512  0.00  0.00     0.255 C 
HETATM   23  N   UNL     1       4.080   4.606  21.078  0.00  0.00    -0.072 N 
HETATM   24  H   UNL     1       4.852   4.386  20.435  0.00  0.00     0.279 HD
HETATM   25  C   UNL     1       3.146   3.413  21.059  0.00  0.00     0.269 C 
HETATM   26  C   UNL     1       4.676   4.729  22.471  0.00  0.00     0.255 C 
HETATM   27  C   UNL     1       5.318   6.082  22.768  0.00  0.00     0.163 C 
ENDBRANCH  17  20
ENDBRANCH  16  17
ENDBRANCH   9  11
BRANCH   1  28
HETATM   28  C   UNL     1       0.248   8.768  27.995  0.00  0.00     0.274 C 
HETATM   29  N   UNL     1       0.422   7.416  27.704  0.00  0.00    -0.342 N 
HETATM   30  C   UNL     1       0.119   6.702  26.466  0.00  0.00     0.161 C 
HETATM   31  C   UNL     1       1.075   6.520  28.658  0.00  0.00     0.139 C 
HETATM   32  C   UNL     1       1.134   5.591  26.482  0.00  0.00    -0.056 C 
HETATM   33  C   UNL     1       1.391   4.662  25.543  0.00  0.00    -0.018 C 
HETATM   34  C   UNL     1       1.910   5.598  27.781  0.00  0.00     0.056 C 
HETATM   35  C   UNL     1       2.380   3.547  25.821  0.00  0.00     0.054 C 
HETATM   36  C   UNL     1       2.519   3.265  27.303  0.00  0.00    -0.026 C 
HETATM   37  C   UNL     1       2.244   4.202  28.233  0.00  0.00    -0.020 C 
HETATM   38  O   UNL     1       0.668   9.240  29.056  0.00  0.00    -0.266 OA
ENDBRANCH   1  28
BRANCH   3  39
HETATM   39  N   UNL     1      -3.707  11.198  27.249  0.00  0.00    -0.231 N 
HETATM   40  H   UNL     1      -4.023  12.125  27.004  0.00  0.00     0.174 HD
HETATM   41  H   UNL     1      -3.930  10.846  28.168  0.00  0.00     0.174 HD
ENDBRANCH   3  39
TORSDOF 5
ENDMDL
MODEL 4
REMARK VINA RESULT:   -10.255      1.988      6.479
REMARK INTER + INTRA:         -14.300
REMARK INTER:                 -12.886
REMARK INTRA:                  -1.413
REMARK UNBOUND:                -1.346
REMARK  5 active torsions:
REMARK  status: ('A' for Active; 'I' for Inactive)
REMARK       I    between atoms: N_8  and  C_10 
REMARK    1  A    between atoms: C_10  and  C_12 
REMARK    2  A    between atoms: C_14  and  N_15 
REMARK    3  A    between atoms: C_21  and  C_23 
REMARK    4  A    between atoms: C_28  and  S_29 
REMARK    5  A    between atoms: S_29  and  N_32 
ROOT
HETATM    1  C   UNL     1       5.305   9.673  22.952  0.00  0.00     0.156 A 
HETATM    2  N   UNL     1       6.661   9.623  23.062  0.00  0.00    -0.057 NA
HETATM    3  C   UNL     1       7.251  10.678  23.601  0.00  0.00     0.721 A 
HETATM    4  N   UNL     1       6.587  11.752  24.029  0.00  0.00    -0.063 NA
HETATM    5  C   UNL     1       5.237  11.789  23.921  0.00  0.00     0.088 A 
HETATM    6  C   UNL     1       4.479  10.746  23.407  0.00  0.00     0.029 A 
HETATM    7  C   UNL     1       4.547  12.937  24.316  0.00  0.00     0.034 A 
HETATM    8  C   UNL     1       3.134  13.093  24.234  0.00  0.00     0.014 A 
HETATM    9  C   UNL     1       2.299  12.075  23.764  0.00  0.00    -0.023 A 
HETATM   10  C   UNL     1       3.011  10.897  23.389  0.00  0.00     0.028 A 
ENDROOT
BRANCH   9  11
HETATM   11  C   UNL     1       0.771  12.184  23.756  0.00  0.00    -0.003 A 
HETATM   12  C   UNL     1       0.183  13.474  23.675  0.00  0.00     0.014 A 
HETATM   13  C   UNL     1      -1.216  13.709  23.611  0.00  0.00     0.001 A 
HETATM   14  C   UNL     1      -2.118  12.670  23.539  0.00  0.00     0.002 A 
HETATM   15  C   UNL     1      -1.602  11.379  23.641  0.00  0.00     0.026 A 
HETATM   16  C   UNL     1      -0.199  11.141  23.801  0.00  0.00     0.090 A 
BRANCH  16  17
HETATM   17  S   UNL     1       0.078   9.483  24.403  0.00  0.00     0.261 S 
HETATM   18  O   UNL     1      -1.201   8.857  24.635  0.00  0.00    -0.200 OA
HETATM   19  O   UNL     1       1.133   8.820  23.682  0.00  0.00    -0.200 OA
BRANCH  17  20
HETATM   20  N   UNL     1       0.779   9.835  25.921  0.00  0.00    -0.303 N 
HETATM   21  C   UNL     1       2.104   9.233  26.202  0.00  0.00     0.163 C 
HETATM   22  C   UNL     1       2.071   7.985  27.098  0.00  0.00     0.255 C 
HETATM   23  N   UNL     1       1.019   7.988  28.198  0.00  0.00    -0.072 N 
HETATM   24  H   UNL     1       1.461   8.441  29.009  0.00  0.00     0.279 HD
HETATM   25  C   UNL     1       0.665   6.579  28.629  0.00  0.00     0.269 C 
HETATM   26  C   UNL     1      -0.269   8.741  27.908  0.00  0.00     0.255 C 
HETATM   27  C   UNL     1      -0.084  10.023  27.099  0.00  0.00     0.163 C 
ENDBRANCH  17  20
ENDBRANCH  16  17
ENDBRANCH   9  11
BRANCH   1  28
HETATM   28  C   UNL     1       4.725   8.587  22.074  0.00  0.00     0.274 C 
HETATM   29  N   UNL     1       4.429   7.321  22.574  0.00  0.00    -0.342 N 
HETATM   30  C   UNL     1       4.422   6.866  23.963  0.00  0.00     0.161 C 
HETATM   31  C   UNL     1       3.957   6.255  21.690  0.00  0.00     0.139 C 
HETATM   32  C   UNL     1       3.383   5.777  23.936  0.00  0.00    -0.056 C 
HETATM   33  C   UNL     1       2.884   5.053  24.955  0.00  0.00    -0.018 C 
HETATM   34  C   UNL     1       2.909   5.528  22.520  0.00  0.00     0.056 C 
HETATM   35  C   UNL     1       1.928   3.909  24.685  0.00  0.00     0.054 C 
HETATM   36  C   UNL     1       2.102   3.339  23.291  0.00  0.00    -0.026 C 
HETATM   37  C   UNL     1       2.616   4.072  22.283  0.00  0.00    -0.020 C 
HETATM   38  O   UNL     1       4.569   8.841  20.876  0.00  0.00    -0.266 OA
ENDBRANCH   1  28
BRANCH   3  39
HETATM   39  N   UNL     1       8.625  10.657  23.692  0.00  0.00    -0.231 N 
HETATM   40  H   UNL     1       9.056  11.566  23.607  0.00  0.00     0.174 HD
HETATM   41  H   UNL     1       9.054   9.879  23.214  0.00  0.00     0.174 HD
ENDBRANCH   3  39
TORSDOF 5
ENDMDL
MODEL 5
REMARK VINA RESULT:   -10.110      2.233      5.031
REMARK INTER + INTRA:         -14.116
REMARK INTER:                 -12.593
REMARK INTRA:                  -1.524
REMARK UNBOUND:                -1.346
REMARK  5 active torsions:
REMARK  status: ('A' for Active; 'I' for Inactive)
REMARK       I    between atoms: N_8  and  C_10 
REMARK    1  A    between atoms: C_10  and  C_12 
REMARK    2  A    between atoms: C_14  and  N_15 
REMARK    3  A    between atoms: C_21  and  C_23 
REMARK    4  A    between atoms: C_28  and  S_29 
REMARK    5  A    between atoms: S_29  and  N_32 
ROOT
HETATM    1  C   UNL     1       0.332  11.503  24.664  0.00  0.00     0.156 A 
HETATM    2  N   UNL     1      -0.418  12.359  23.917  0.00  0.00    -0.057 NA
HETATM    3  C   UNL     1      -1.713  12.399  24.183  0.00  0.00     0.721 A 
HETATM    4  N   UNL     1      -2.292  11.657  25.128  0.00  0.00    -0.063 NA
HETATM    5  C   UNL     1      -1.536  10.813  25.870  0.00  0.00     0.088 A 
HETATM    6  C   UNL     1      -0.162  10.686  25.728  0.00  0.00     0.029 A 
HETATM    7  C   UNL     1      -2.152   9.993  26.819  0.00  0.00     0.034 A 
HETATM    8  C   UNL     1      -1.460   9.060  27.643  0.00  0.00     0.014 A 
HETATM    9  C   UNL     1      -0.072   8.901  27.586  0.00  0.00    -0.023 A 
HETATM   10  C   UNL     1       0.549   9.762  26.633  0.00  0.00     0.028 A 
ENDROOT
BRANCH   9  11
HETATM   11  C   UNL     1       0.703   7.975  28.527  0.00  0.00    -0.003 A 
HETATM   12  C   UNL     1       1.335   8.541  29.667  0.00  0.00     0.014 A 
HETATM   13  C   UNL     1       2.042   7.787  30.640  0.00  0.00     0.001 A 
HETATM   14  C   UNL     1       2.096   6.411  30.588  0.00  0.00     0.002 A 
HETATM   15  C   UNL     1       1.516   5.801  29.477  0.00  0.00     0.026 A 
HETATM   16  C   UNL     1       0.884   6.564  28.444  0.00  0.00     0.090 A 
BRANCH  16  17
HETATM   17  S   UNL     1       0.711   5.576  26.967  0.00  0.00     0.261 S 
HETATM   18  O   UNL     1       1.402   4.325  27.166  0.00  0.00    -0.200 OA
HETATM   19  O   UNL     1      -0.626   5.633  26.436  0.00  0.00    -0.200 OA
BRANCH  17  20
HETATM   20  N   UNL     1       1.626   6.518  25.873  0.00  0.00    -0.303 N 
HETATM   21  C   UNL     1       1.025   6.771  24.542  0.00  0.00     0.163 C 
HETATM   22  C   UNL     1       1.566   5.884  23.409  0.00  0.00     0.255 C 
HETATM   23  N   UNL     1       3.046   5.535  23.492  0.00  0.00    -0.072 N 
HETATM   24  H   UNL     1       3.542   6.294  23.006  0.00  0.00     0.279 HD
HETATM   25  C   UNL     1       3.357   4.260  22.735  0.00  0.00     0.269 C 
HETATM   26  C   UNL     1       3.644   5.426  24.886  0.00  0.00     0.255 C 
HETATM   27  C   UNL     1       3.095   6.437  25.890  0.00  0.00     0.163 C 
ENDBRANCH  17  20
ENDBRANCH  16  17
ENDBRANCH   9  11
BRANCH   1  28
HETATM   28  C   UNL     1       1.728  11.287  24.125  0.00  0.00     0.274 C 
HETATM   29  N   UNL     1       2.653  12.327  24.049  0.00  0.00    -0.342 N 
HETATM   30  C   UNL     1       2.560  13.674  24.605  0.00  0.00     0.161 C 
HETATM   31  C   UNL     1       3.966  12.120  23.438  0.00  0.00     0.139 C 
HETATM   32  C   UNL     1       4.004  14.017  24.854  0.00  0.00    -0.056 C 
HETATM   33  C   UNL     1       4.529  15.107  25.443  0.00  0.00    -0.018 C 
HETATM   34  C   UNL     1       4.910  12.929  24.317  0.00  0.00     0.056 C 
HETATM   35  C   UNL     1       6.031  15.310  25.476  0.00  0.00     0.054 C 
HETATM   36  C   UNL     1       6.730  14.580  24.346  0.00  0.00    -0.026 C 
HETATM   37  C   UNL     1       6.184  13.497  23.756  0.00  0.00    -0.020 C 
HETATM   38  O   UNL     1       2.011  10.163  23.701  0.00  0.00    -0.266 OA
ENDBRANCH   1  28
BRANCH   3  39
HETATM   39  N   UNL     1      -2.492  13.238  23.417  0.00  0.00    -0.231 N 
HETATM   40  H   UNL     1      -2.061  13.518  22.548  0.00  0.00     0.174 HD
HETATM   41  H   UNL     1      -2.987  13.935  23.951  0.00  0.00     0.174 HD
ENDBRANCH   3  39
TORSDOF 5
ENDMDL
MODEL 6
REMARK VINA RESULT:    -9.784      2.096      5.119
REMARK INTER + INTRA:         -13.704
REMARK INTER:                 -12.838
REMARK INTRA:                  -0.866
REMARK UNBOUND:                -1.346
REMARK  5 active torsions:
REMARK  status: ('A' for Active; 'I' for Inactive)
REMARK       I    between atoms: N_8  and  C_10 
REMARK    1  A    between atoms: C_10  and  C_12 
REMARK    2  A    between atoms: C_14  and  N_15 
REMARK    3  A    between atoms: C_21  and  C_23 
REMARK    4  A    between atoms: C_28  and  S_29 
REMARK    5  A    between atoms: S_29  and  N_32 
ROOT
HETATM    1  C   UNL     1       0.468  12.335  24.132  0.00  0.00     0.156 A 
HETATM    2  N   UNL     1      -0.308  13.019  23.246  0.00  0.00    -0.057 NA
HETATM    3  C   UNL     1      -1.450  12.449  22.896  0.00  0.00     0.721 A 
HETATM    4  N   UNL     1      -1.856  11.269  23.366  0.00  0.00    -0.063 NA
HETATM    5  C   UNL     1      -1.080  10.600  24.251  0.00  0.00     0.088 A 
HETATM    6  C   UNL     1       0.127  11.086  24.735  0.00  0.00     0.029 A 
HETATM    7  C   UNL     1      -1.477   9.338  24.699  0.00  0.00     0.034 A 
HETATM    8  C   UNL     1      -0.735   8.540  25.616  0.00  0.00     0.014 A 
HETATM    9  C   UNL     1       0.470   8.976  26.176  0.00  0.00    -0.023 A 
HETATM   10  C   UNL     1       0.853  10.277  25.733  0.00  0.00     0.028 A 
ENDROOT
BRANCH   9  11
HETATM   11  C   UNL     1       1.236   8.178  27.235  0.00  0.00    -0.003 A 
HETATM   12  C   UNL     1       1.669   8.851  28.409  0.00  0.00     0.014 A 
HETATM   13  C   UNL     1       2.346   8.218  29.485  0.00  0.00     0.001 A 
HETATM   14  C   UNL     1       2.561   6.857  29.500  0.00  0.00     0.002 A 
HETATM   15  C   UNL     1       2.181   6.147  28.362  0.00  0.00     0.026 A 
HETATM   16  C   UNL     1       1.585   6.797  27.235  0.00  0.00     0.090 A 
BRANCH  16  17
HETATM   17  S   UNL     1       1.690   5.747  25.794  0.00  0.00     0.261 S 
HETATM   18  O   UNL     1       2.569   4.643  26.092  0.00  0.00    -0.200 OA
HETATM   19  O   UNL     1       0.405   5.555  25.174  0.00  0.00    -0.200 OA
BRANCH  17  20
HETATM   20  N   UNL     1       2.507   6.800  24.723  0.00  0.00    -0.303 N 
HETATM   21  C   UNL     1       1.837   7.095  23.434  0.00  0.00     0.163 C 
HETATM   22  C   UNL     1       2.375   6.306  22.230  0.00  0.00     0.255 C 
HETATM   23  N   UNL     1       3.873   6.034  22.233  0.00  0.00    -0.072 N 
HETATM   24  H   UNL     1       4.307   6.845  21.773  0.00  0.00     0.279 HD
HETATM   25  C   UNL     1       4.217   4.823  21.389  0.00  0.00     0.269 C 
HETATM   26  C   UNL     1       4.535   5.878  23.592  0.00  0.00     0.255 C 
HETATM   27  C   UNL     1       3.978   6.798  24.676  0.00  0.00     0.163 C 
ENDBRANCH  17  20
ENDBRANCH  16  17
ENDBRANCH   9  11
BRANCH   1  28
HETATM   28  C   UNL     1       1.869  12.886  24.263  0.00  0.00     0.274 C 
HETATM   29  N   UNL     1       2.990  12.060  24.208  0.00  0.00    -0.342 N 
HETATM   30  C   UNL     1       3.066  10.647  23.842  0.00  0.00     0.161 C 
HETATM   31  C   UNL     1       4.332  12.598  24.430  0.00  0.00     0.139 C 
HETATM   32  C   UNL     1       4.451  10.541  23.265  0.00  0.00    -0.056 C 
HETATM   33  C   UNL     1       5.050   9.487  22.680  0.00  0.00    -0.018 C 
HETATM   34  C   UNL     1       5.198  11.848  23.428  0.00  0.00     0.056 C 
HETATM   35  C   UNL     1       6.509   9.561  22.280  0.00  0.00     0.054 C 
HETATM   36  C   UNL     1       7.276  10.576  23.104  0.00  0.00    -0.026 C 
HETATM   37  C   UNL     1       6.660  11.620  23.696  0.00  0.00    -0.020 C 
HETATM   38  O   UNL     1       1.992  14.097  24.476  0.00  0.00    -0.266 OA
ENDBRANCH   1  28
BRANCH   3  39
HETATM   39  N   UNL     1      -2.234  13.111  21.978  0.00  0.00    -0.231 N 
HETATM   40  H   UNL     1      -1.977  12.937  21.017  0.00  0.00     0.174 HD
HETATM   41  H   UNL     1      -2.465  14.056  22.246  0.00  0.00     0.174 HD
ENDBRANCH   3  39
TORSDOF 5
ENDMDL
MODEL 7
REMARK VINA RESULT:    -9.754      2.183      7.512
REMARK INTER + INTRA:         -13.666
REMARK INTER:                 -13.289
REMARK INTRA:                  -0.377
REMARK UNBOUND:                -1.346
REMARK  5 active torsions:
REMARK  status: ('A' for Active; 'I' for Inactive)
REMARK       I    between atoms: N_8  and  C_10 
REMARK    1  A    between atoms: C_10  and  C_12 
REMARK    2  A    between atoms: C_14  and  N_15 
REMARK    3  A    between atoms: C_21  and  C_23 
REMARK    4  A    between atoms: C_28  and  S_29 
REMARK    5  A    between atoms: S_29  and  N_32 
ROOT
HETATM    1  C   UNL     1      -0.249   9.381  25.269  0.00  0.00     0.156 A 
HETATM    2  N   UNL     1      -1.494   9.809  25.616  0.00  0.00    -0.057 NA
HETATM    3  C   UNL     1      -1.722  11.109  25.519  0.00  0.00     0.721 A 
HETATM    4  N   UNL     1      -0.807  11.986  25.105  0.00  0.00    -0.063 NA
HETATM    5  C   UNL     1       0.427  11.549  24.756  0.00  0.00     0.088 A 
HETATM    6  C   UNL     1       0.802  10.213  24.775  0.00  0.00     0.029 A 
HETATM    7  C   UNL     1       1.403  12.474  24.379  0.00  0.00     0.034 A 
HETATM    8  C   UNL     1       2.734  12.131  24.007  0.00  0.00     0.014 A 
HETATM    9  C   UNL     1       3.177  10.805  23.965  0.00  0.00    -0.023 A 
HETATM   10  C   UNL     1       2.165   9.867  24.326  0.00  0.00     0.028 A 
ENDROOT
BRANCH   9  11
HETATM   11  C   UNL     1       4.573  10.405  23.478  0.00  0.00    -0.003 A 
HETATM   12  C   UNL     1       5.646  11.315  23.673  0.00  0.00     0.014 A 
HETATM   13  C   UNL     1       6.993  11.046  23.311  0.00  0.00     0.001 A 
HETATM   14  C   UNL     1       7.373   9.820  22.809  0.00  0.00     0.002 A 
HETATM   15  C   UNL     1       6.358   8.895  22.571  0.00  0.00     0.026 A 
HETATM   16  C   UNL     1       4.986   9.197  22.845  0.00  0.00     0.090 A 
BRANCH  16  17
HETATM   17  S   UNL     1       3.920   8.054  21.981  0.00  0.00     0.261 S 
HETATM   18  O   UNL     1       2.596   8.142  22.545  0.00  0.00    -0.200 OA
HETATM   19  O   UNL     1       4.148   8.077  20.560  0.00  0.00    -0.200 OA
BRANCH  17  20
HETATM   20  N   UNL     1       4.611   6.573  22.481  0.00  0.00    -0.303 N 
HETATM   21  C   UNL     1       4.371   5.395  21.613  0.00  0.00     0.163 C 
HETATM   22  C   UNL     1       3.271   4.442  22.106  0.00  0.00     0.255 C 
HETATM   23  N   UNL     1       3.169   4.273  23.615  0.00  0.00    -0.072 N 
HETATM   24  H   UNL     1       3.809   3.505  23.857  0.00  0.00     0.279 HD
HETATM   25  C   UNL     1       1.781   3.827  24.030  0.00  0.00     0.269 C 
HETATM   26  C   UNL     1       3.563   5.472  24.463  0.00  0.00     0.255 C 
HETATM   27  C   UNL     1       4.741   6.274  23.916  0.00  0.00     0.163 C 
ENDBRANCH  17  20
ENDBRANCH  16  17
ENDBRANCH   9  11
BRANCH   1  28
HETATM   28  C   UNL     1       0.038   7.954  25.676  0.00  0.00     0.274 C 
HETATM   29  N   UNL     1       0.811   7.652  26.795  0.00  0.00    -0.342 N 
HETATM   30  C   UNL     1       1.298   8.551  27.838  0.00  0.00     0.161 C 
HETATM   31  C   UNL     1       1.155   6.267  27.119  0.00  0.00     0.139 C 
HETATM   32  C   UNL     1       1.375   7.641  29.034  0.00  0.00    -0.056 C 
HETATM   33  C   UNL     1       1.679   7.939  30.310  0.00  0.00    -0.018 C 
HETATM   34  C   UNL     1       1.065   6.213  28.637  0.00  0.00     0.056 C 
HETATM   35  C   UNL     1       1.823   6.837  31.340  0.00  0.00     0.054 C 
HETATM   36  C   UNL     1       2.190   5.509  30.706  0.00  0.00    -0.026 C 
HETATM   37  C   UNL     1       1.891   5.230  29.421  0.00  0.00    -0.020 C 
HETATM   38  O   UNL     1      -0.393   7.053  24.949  0.00  0.00    -0.266 OA
ENDBRANCH   1  28
BRANCH   3  39
HETATM   39  N   UNL     1      -2.966  11.564  25.894  0.00  0.00    -0.231 N 
HETATM   40  H   UNL     1      -3.583  10.841  26.234  0.00  0.00     0.174 HD
HETATM   41  H   UNL     1      -3.348  12.264  25.276  0.00  0.00     0.174 HD
ENDBRANCH   3  39
TORSDOF 5
ENDMDL
MODEL 8
REMARK VINA RESULT:    -9.626      1.914      4.002
REMARK INTER + INTRA:         -13.505
REMARK INTER:                 -12.215
REMARK INTRA:                  -1.289
REMARK UNBOUND:                -1.346
REMARK  5 active torsions:
REMARK  status: ('A' for Active; 'I' for Inactive)
REMARK       I    between atoms: N_8  and  C_10 
REMARK    1  A    between atoms: C_10  and  C_12 
REMARK    2  A    between atoms: C_14  and  N_15 
REMARK    3  A    between atoms: C_21  and  C_23 
REMARK    4  A    between atoms: C_28  and  S_29 
REMARK    5  A    between atoms: S_29  and  N_32 
ROOT
HETATM    1  C   UNL     1       4.392   6.370  22.779  0.00  0.00     0.156 A 
HETATM    2  N   UNL     1       4.865   5.393  21.956  0.00  0.00    -0.057 NA
HETATM    3  C   UNL     1       4.117   4.309  21.833  0.00  0.00     0.721 A 
HETATM    4  N   UNL     1       2.954   4.143  22.462  0.00  0.00    -0.063 NA
HETATM    5  C   UNL     1       2.489   5.123  23.273  0.00  0.00     0.088 A 
HETATM    6  C   UNL     1       3.145   6.329  23.476  0.00  0.00     0.029 A 
HETATM    7  C   UNL     1       1.299   4.925  23.978  0.00  0.00     0.034 A 
HETATM    8  C   UNL     1       0.724   5.878  24.868  0.00  0.00     0.014 A 
HETATM    9  C   UNL     1       1.305   7.129  25.095  0.00  0.00    -0.023 A 
HETATM   10  C   UNL     1       2.506   7.330  24.351  0.00  0.00     0.028 A 
ENDROOT
BRANCH   9  11
HETATM   11  C   UNL     1       0.658   8.204  25.972  0.00  0.00    -0.003 A 
HETATM   12  C   UNL     1       0.363   9.466  25.391  0.00  0.00     0.014 A 
HETATM   13  C   UNL     1      -0.278  10.530  26.080  0.00  0.00     0.001 A 
HETATM   14  C   UNL     1      -0.744  10.377  27.368  0.00  0.00     0.002 A 
HETATM   15  C   UNL     1      -0.460   9.168  28.000  0.00  0.00     0.026 A 
HETATM   16  C   UNL     1       0.270   8.128  27.341  0.00  0.00     0.090 A 
BRANCH  16  17
HETATM   17  S   UNL     1       0.899   6.964  28.540  0.00  0.00     0.261 S 
HETATM   18  O   UNL     1       0.849   7.575  29.846  0.00  0.00    -0.200 OA
HETATM   19  O   UNL     1       0.411   5.630  28.302  0.00  0.00    -0.200 OA
BRANCH  17  20
HETATM   20  N   UNL     1       2.535   6.893  28.051  0.00  0.00    -0.303 N 
HETATM   21  C   UNL     1       3.085   5.551  27.745  0.00  0.00     0.163 C 
HETATM   22  C   UNL     1       3.941   4.933  28.861  0.00  0.00     0.255 C 
HETATM   23  N   UNL     1       4.793   5.910  29.660  0.00  0.00    -0.072 N 
HETATM   24  H   UNL     1       5.684   5.987  29.151  0.00  0.00     0.279 HD
HETATM   25  C   UNL     1       5.125   5.361  31.033  0.00  0.00     0.269 C 
HETATM   26  C   UNL     1       4.243   7.317  29.824  0.00  0.00     0.255 C 
HETATM   27  C   UNL     1       3.505   7.854  28.600  0.00  0.00     0.163 C 
ENDBRANCH  17  20
ENDBRANCH  16  17
ENDBRANCH   9  11
BRANCH   1  28
HETATM   28  C   UNL     1       5.411   7.436  23.106  0.00  0.00     0.274 C 
HETATM   29  N   UNL     1       5.115   8.793  22.989  0.00  0.00    -0.342 N 
HETATM   30  C   UNL     1       3.823   9.428  22.745  0.00  0.00     0.161 C 
HETATM   31  C   UNL     1       6.143   9.809  23.220  0.00  0.00     0.139 C 
HETATM   32  C   UNL     1       3.984  10.756  23.435  0.00  0.00    -0.056 C 
HETATM   33  C   UNL     1       3.079  11.735  23.618  0.00  0.00    -0.018 C 
HETATM   34  C   UNL     1       5.400  10.923  23.944  0.00  0.00     0.056 C 
HETATM   35  C   UNL     1       3.494  13.056  24.234  0.00  0.00     0.054 C 
HETATM   36  C   UNL     1       4.969  13.341  24.032  0.00  0.00    -0.026 C 
HETATM   37  C   UNL     1       5.863  12.350  23.836  0.00  0.00    -0.020 C 
HETATM   38  O   UNL     1       6.543   7.067  23.434  0.00  0.00    -0.266 OA
ENDBRANCH   1  28
BRANCH   3  39
HETATM   39  N   UNL     1       4.595   3.298  21.028  0.00  0.00    -0.231 N 
HETATM   40  H   UNL     1       5.602   3.271  20.957  0.00  0.00     0.174 HD
HETATM   41  H   UNL     1       4.054   3.154  20.190  0.00  0.00     0.174 HD
ENDBRANCH   3  39
TORSDOF 5
ENDMDL
MODEL 9
REMARK VINA RESULT:    -9.483      2.361      5.207
REMARK INTER + INTRA:         -13.324
REMARK INTER:                 -11.978
REMARK INTRA:                  -1.346
REMARK UNBOUND:                -1.346
REMARK  5 active torsions:
REMARK  status: ('A' for Active; 'I' for Inactive)
REMARK       I    between atoms: N_8  and  C_10 
REMARK    1  A    between atoms: C_10  and  C_12 
REMARK    2  A    between atoms: C_14  and  N_15 
REMARK    3  A    between atoms: C_21  and  C_23 
REMARK    4  A    between atoms: C_28  and  S_29 
REMARK    5  A    between atoms: S_29  and  N_32 
ROOT
HETATM    1  C   UNL     1       0.740  10.390  24.298  0.00  0.00     0.156 A 
HETATM    2  N   UNL     1       0.220  11.362  23.498  0.00  0.00    -0.057 NA
HETATM    3  C   UNL     1      -0.805  12.043  23.984  0.00  0.00     0.721 A 
HETATM    4  N   UNL     1      -1.330  11.820  25.189  0.00  0.00    -0.063 NA
HETATM    5  C   UNL     1      -0.802  10.855  25.979  0.00  0.00     0.088 A 
HETATM    6  C   UNL     1       0.294  10.083  25.620  0.00  0.00     0.029 A 
HETATM    7  C   UNL     1      -1.388  10.582  27.217  0.00  0.00     0.034 A 
HETATM    8  C   UNL     1      -0.928   9.583  28.122  0.00  0.00     0.014 A 
HETATM    9  C   UNL     1       0.191   8.791  27.849  0.00  0.00    -0.023 A 
HETATM   10  C   UNL     1       0.798   9.096  26.594  0.00  0.00     0.028 A 
ENDROOT
BRANCH   9  11
HETATM   11  C   UNL     1       0.762   7.777  28.845  0.00  0.00    -0.003 A 
HETATM   12  C   UNL     1       1.148   8.236  30.133  0.00  0.00     0.014 A 
HETATM   13  C   UNL     1       1.645   7.393  31.162  0.00  0.00     0.001 A 
HETATM   14  C   UNL     1       1.711   6.026  31.005  0.00  0.00     0.002 A 
HETATM   15  C   UNL     1       1.369   5.519  29.751  0.00  0.00     0.026 A 
HETATM   16  C   UNL     1       0.959   6.376  28.681  0.00  0.00     0.090 A 
BRANCH  16  17
HETATM   17  S   UNL     1       1.090   5.517  27.121  0.00  0.00     0.261 S 
HETATM   18  O   UNL     1       0.812   4.119  27.340  0.00  0.00    -0.200 OA
HETATM   19  O   UNL     1       0.481   6.257  26.047  0.00  0.00    -0.200 OA
BRANCH  17  20
HETATM   20  N   UNL     1       2.766   5.684  26.834  0.00  0.00    -0.303 N 
HETATM   21  C   UNL     1       3.170   6.605  25.745  0.00  0.00     0.163 C 
HETATM   22  C   UNL     1       3.548   5.918  24.423  0.00  0.00     0.255 C 
HETATM   23  N   UNL     1       4.261   4.580  24.553  0.00  0.00    -0.072 N 
HETATM   24  H   UNL     1       5.264   4.800  24.615  0.00  0.00     0.279 HD
HETATM   25  C   UNL     1       4.079   3.732  23.311  0.00  0.00     0.269 C 
HETATM   26  C   UNL     1       3.910   3.735  25.768  0.00  0.00     0.255 C 
HETATM   27  C   UNL     1       3.663   4.536  27.044  0.00  0.00     0.163 C 
ENDBRANCH  17  20
ENDBRANCH  16  17
ENDBRANCH   9  11
BRANCH   1  28
HETATM   28  C   UNL     1       1.700   9.466  23.585  0.00  0.00     0.274 C 
HETATM   29  N   UNL     1       2.983   9.877  23.226  0.00  0.00    -0.342 N 
HETATM   30  C   UNL     1       3.688  11.100  23.599  0.00  0.00     0.161 C 
HETATM   31  C   UNL     1       3.864   8.999  22.455  0.00  0.00     0.139 C 
HETATM   32  C   UNL     1       5.127  10.660  23.574  0.00  0.00    -0.056 C 
HETATM   33  C   UNL     1       6.232  11.345  23.920  0.00  0.00    -0.018 C 
HETATM   34  C   UNL     1       5.240   9.241  23.059  0.00  0.00     0.056 C 
HETATM   35  C   UNL     1       7.605  10.747  23.693  0.00  0.00     0.054 C 
HETATM   36  C   UNL     1       7.603   9.718  22.580  0.00  0.00    -0.026 C 
HETATM   37  C   UNL     1       6.484   9.049  22.235  0.00  0.00    -0.020 C 
HETATM   38  O   UNL     1       1.294   8.340  23.281  0.00  0.00    -0.266 OA
ENDBRANCH   1  28
BRANCH   3  39
HETATM   39  N   UNL     1      -1.363  13.009  23.177  0.00  0.00    -0.231 N 
HETATM   40  H   UNL     1      -2.225  13.395  23.533  0.00  0.00     0.174 HD
HETATM   41  H   UNL     1      -1.305  12.801  22.191  0.00  0.00     0.174 HD
ENDBRANCH   3  39
TORSDOF 5
ENDMDL
