MODEL 1
REMARK VINA RESULT:    -6.400      0.000      0.000
REMARK INTER + INTRA:          -9.173
REMARK INTER:                  -8.242
REMARK INTRA:                  -0.931
REMARK UNBOUND:                -0.902
REMARK  5 active torsions:
REMARK  status: ('A' for Active; 'I' for Inactive)
REMARK    1  A    between atoms: N8_1  and  C24_2 
REMARK    2  A    between atoms: N8_1  and  C7_8 
REMARK    3  A    between atoms: C2_13  and  N1_14 
REMARK    4  A    between atoms: N1_14  and  C17_15 
REMARK    5  A    between atoms: C14_16  and  C13_19 
ROOT
ATOM      1  C17 FTA A   1       7.613  11.444  11.317  1.00  0.00     0.142 C 
ATOM      2  C14 FTA A   1       7.445  11.402   9.980  1.00  0.00     0.158 C 
ATOM      3  C18 FTA A   1       8.342  12.134   9.111  1.00  0.00     0.069 C 
ATOM      4  N21 FTA A   1       9.103  12.818   8.538  1.00  0.00    -0.197 NA
ENDROOT
BRANCH   2   5
ATOM      5  C13 FTA A   1       6.347  10.590   9.409  1.00  0.00     0.197 A 
ATOM      6  N15 FTA A   1       5.587  10.908   8.286  1.00  0.00    -0.093 NA
ATOM      7  N19 FTA A   1       4.639   9.906   8.124  1.00  0.00    -0.231 N 
ATOM      8  N20 FTA A   1       4.795   8.966   9.133  1.00  0.00    -0.017 NA
ATOM      9  H15 FTA A   1       3.933   9.866   7.375  1.00  0.00     0.200 HD
ATOM     10  N16 FTA A   1       5.860   9.383   9.924  1.00  0.00    -0.090 NA
ENDBRANCH   2   5
BRANCH   1  11
ATOM     11  N1  FTA A   1       6.568  11.784  12.094  1.00  0.00    -0.389 N 
ATOM     12  H11 FTA A   1       6.396  11.216  12.937  1.00  0.00     0.159 HD
BRANCH  11  13
ATOM     13  C2  FTA A   1       5.682  12.868  11.841  1.00  0.00     0.028 A 
ATOM     14  C4  FTA A   1       5.995  14.178  12.194  1.00  0.00     0.031 A 
ATOM     15  C6  FTA A   1       4.994  15.157  12.130  1.00  0.00     0.031 A 
ATOM     16  C7  FTA A   1       3.695  14.861  11.727  1.00  0.00     0.032 A 
ATOM     17  C5  FTA A   1       3.406  13.560  11.356  1.00  0.00     0.031 A 
ATOM     18  C3  FTA A   1       4.381  12.572  11.425  1.00  0.00     0.031 A 
BRANCH  16  19
ATOM     19  N8  FTA A   1       2.622  15.780  11.853  1.00  0.00    -0.356 N 
ATOM     20  H1  FTA A   1       2.861  16.780  11.914  1.00  0.00     0.166 HD
BRANCH  19  21
ATOM     21  C24 FTA A   1       1.238  15.434  11.903  1.00  0.00     0.032 A 
ATOM     22  C26 FTA A   1       0.674  14.881  13.029  1.00  0.00     0.029 A 
ATOM     23  C28 FTA A   1      -0.623  14.410  12.956  1.00  0.00     0.002 A 
ATOM     24  C30 FTA A   1      -1.384  14.502  11.803  1.00  0.00     0.000 A 
ATOM     25  C29 FTA A   1      -0.846  15.085  10.686  1.00  0.00     0.002 A 
ATOM     26  C27 FTA A   1       0.468  15.560  10.756  1.00  0.00     0.029 A 
ENDBRANCH  19  21
ENDBRANCH  16  19
ENDBRANCH  11  13
ENDBRANCH   1  11
TORSDOF 5
ENDMDL
MODEL 2
REMARK VINA RESULT:    -6.268      1.023      1.752
REMARK INTER + INTRA:          -9.003
REMARK INTER:                  -7.938
REMARK INTRA:                  -1.064
REMARK UNBOUND:                -0.902
REMARK  5 active torsions:
REMARK  status: ('A' for Active; 'I' for Inactive)
REMARK    1  A    between atoms: N8_1  and  C24_2 
REMARK    2  A    between atoms: N8_1  and  C7_8 
REMARK    3  A    between atoms: C2_13  and  N1_14 
REMARK    4  A    between atoms: N1_14  and  C17_15 
REMARK    5  A    between atoms: C14_16  and  C13_19 
ROOT
ATOM      1  C17 FTA A   1       7.499  12.440  10.980  1.00  0.00     0.142 C 
ATOM      2  C14 FTA A   1       7.754  11.394  10.170  1.00  0.00     0.158 C 
ATOM      3  C18 FTA A   1       9.120  11.002   9.896  1.00  0.00     0.069 C 
ATOM      4  N21 FTA A   1      10.267  10.835   9.720  1.00  0.00    -0.197 NA
ENDROOT
BRANCH   2   5
ATOM      5  C13 FTA A   1       6.626  10.641   9.576  1.00  0.00     0.197 A 
ATOM      6  N15 FTA A   1       5.933  10.978   8.415  1.00  0.00    -0.093 NA
ATOM      7  N19 FTA A   1       4.927  10.037   8.241  1.00  0.00    -0.231 N 
ATOM      8  N20 FTA A   1       4.979   9.118   9.279  1.00  0.00    -0.017 NA
ATOM      9  H15 FTA A   1       4.249  10.023   7.465  1.00  0.00     0.200 HD
ATOM     10  N16 FTA A   1       6.039   9.484  10.102  1.00  0.00    -0.090 NA
ENDBRANCH   2   5
BRANCH   1  11
ATOM     11  N1  FTA A   1       6.695  13.426  10.537  1.00  0.00    -0.389 N 
ATOM     12  H11 FTA A   1       6.997  13.947   9.701  1.00  0.00     0.159 HD
BRANCH  11  13
ATOM     13  C2  FTA A   1       5.462  13.802  11.135  1.00  0.00     0.028 A 
ATOM     14  C4  FTA A   1       4.278  13.111  10.889  1.00  0.00     0.031 A 
ATOM     15  C6  FTA A   1       3.065  13.665  11.321  1.00  0.00     0.031 A 
ATOM     16  C7  FTA A   1       3.005  14.887  11.987  1.00  0.00     0.032 A 
ATOM     17  C5  FTA A   1       4.192  15.548  12.246  1.00  0.00     0.031 A 
ATOM     18  C3  FTA A   1       5.403  15.022  11.814  1.00  0.00     0.031 A 
BRANCH  16  19
ATOM     19  N8  FTA A   1       1.785  15.563  12.245  1.00  0.00    -0.356 N 
ATOM     20  H1  FTA A   1       1.837  16.445  12.776  1.00  0.00     0.166 HD
BRANCH  19  21
ATOM     21  C24 FTA A   1       0.492  15.123  11.829  1.00  0.00     0.032 A 
ATOM     22  C26 FTA A   1      -0.037  15.486  10.613  1.00  0.00     0.029 A 
ATOM     23  C28 FTA A   1      -1.356  15.173  10.344  1.00  0.00     0.002 A 
ATOM     24  C30 FTA A   1      -2.153  14.481  11.240  1.00  0.00     0.000 A 
ATOM     25  C29 FTA A   1      -1.626  14.080  12.440  1.00  0.00     0.002 A 
ATOM     26  C27 FTA A   1      -0.292  14.399  12.716  1.00  0.00     0.029 A 
ENDBRANCH  19  21
ENDBRANCH  16  19
ENDBRANCH  11  13
ENDBRANCH   1  11
TORSDOF 5
ENDMDL
MODEL 3
REMARK VINA RESULT:    -6.240      3.356      8.353
REMARK INTER + INTRA:          -8.967
REMARK INTER:                  -8.086
REMARK INTRA:                  -0.880
REMARK UNBOUND:                -0.902
REMARK  5 active torsions:
REMARK  status: ('A' for Active; 'I' for Inactive)
REMARK    1  A    between atoms: N8_1  and  C24_2 
REMARK    2  A    between atoms: N8_1  and  C7_8 
REMARK    3  A    between atoms: C2_13  and  N1_14 
REMARK    4  A    between atoms: N1_14  and  C17_15 
REMARK    5  A    between atoms: C14_16  and  C13_19 
ROOT
ATOM      1  C17 FTA A   1       4.457  10.319   8.819  1.00  0.00     0.142 C 
ATOM      2  C14 FTA A   1       4.367  11.636   8.545  1.00  0.00     0.158 C 
ATOM      3  C18 FTA A   1       4.614  12.118   7.203  1.00  0.00     0.069 C 
ATOM      4  N21 FTA A   1       4.895  12.369   6.093  1.00  0.00    -0.197 NA
ENDROOT
BRANCH   2   5
ATOM      5  C13 FTA A   1       3.999  12.581   9.624  1.00  0.00     0.197 A 
ATOM      6  N15 FTA A   1       3.535  12.240  10.893  1.00  0.00    -0.093 NA
ATOM      7  N19 FTA A   1       3.266  13.421  11.571  1.00  0.00    -0.231 N 
ATOM      8  N20 FTA A   1       3.552  14.497  10.742  1.00  0.00    -0.017 NA
ATOM      9  H15 FTA A   1       2.909  13.489  12.535  1.00  0.00     0.200 HD
ATOM     10  N16 FTA A   1       4.017  13.978   9.538  1.00  0.00    -0.090 NA
ENDBRANCH   2   5
BRANCH   1  11
ATOM     11  N1  FTA A   1       5.244   9.918   9.836  1.00  0.00    -0.389 N 
ATOM     12  H11 FTA A   1       4.823   9.306  10.550  1.00  0.00     0.159 HD
BRANCH  11  13
ATOM     13  C2  FTA A   1       6.611  10.274   9.999  1.00  0.00     0.028 A 
ATOM     14  C4  FTA A   1       7.084  10.886  11.158  1.00  0.00     0.031 A 
ATOM     15  C6  FTA A   1       8.380  11.418  11.164  1.00  0.00     0.031 A 
ATOM     16  C7  FTA A   1       9.212  11.356  10.049  1.00  0.00     0.032 A 
ATOM     17  C5  FTA A   1       8.736  10.723   8.915  1.00  0.00     0.031 A 
ATOM     18  C3  FTA A   1       7.448  10.201   8.883  1.00  0.00     0.031 A 
BRANCH  16  19
ATOM     19  N8  FTA A   1      10.437  12.065   9.962  1.00  0.00    -0.356 N 
ATOM     20  H1  FTA A   1      10.445  13.038  10.299  1.00  0.00     0.166 HD
BRANCH  19  21
ATOM     21  C24 FTA A   1      11.661  11.539   9.448  1.00  0.00     0.032 A 
ATOM     22  C26 FTA A   1      12.576  12.341   8.807  1.00  0.00     0.029 A 
ATOM     23  C28 FTA A   1      13.655  11.745   8.182  1.00  0.00     0.002 A 
ATOM     24  C30 FTA A   1      13.864  10.376   8.206  1.00  0.00     0.000 A 
ATOM     25  C29 FTA A   1      12.981   9.571   8.874  1.00  0.00     0.002 A 
ATOM     26  C27 FTA A   1      11.885  10.171   9.504  1.00  0.00     0.029 A 
ENDBRANCH  19  21
ENDBRANCH  16  19
ENDBRANCH  11  13
ENDBRANCH   1  11
TORSDOF 5
ENDMDL
MODEL 4
REMARK VINA RESULT:    -6.165      2.661      8.115
REMARK INTER + INTRA:          -8.869
REMARK INTER:                  -7.986
REMARK INTRA:                  -0.883
REMARK UNBOUND:                -0.902
REMARK  5 active torsions:
REMARK  status: ('A' for Active; 'I' for Inactive)
REMARK    1  A    between atoms: N8_1  and  C24_2 
REMARK    2  A    between atoms: N8_1  and  C7_8 
REMARK    3  A    between atoms: C2_13  and  N1_14 
REMARK    4  A    between atoms: N1_14  and  C17_15 
REMARK    5  A    between atoms: C14_16  and  C13_19 
ROOT
ATOM      1  C17 FTA A   1       5.221  13.773  11.814  1.00  0.00     0.142 C 
ATOM      2  C14 FTA A   1       4.064  13.455  11.199  1.00  0.00     0.158 C 
ATOM      3  C18 FTA A   1       2.821  14.056  11.633  1.00  0.00     0.069 C 
ATOM      4  N21 FTA A   1       1.891  14.572  12.126  1.00  0.00    -0.197 NA
ENDROOT
BRANCH   2   5
ATOM      5  C13 FTA A   1       4.079  12.500  10.068  1.00  0.00     0.197 A 
ATOM      6  N15 FTA A   1       3.717  11.156  10.121  1.00  0.00    -0.093 NA
ATOM      7  N19 FTA A   1       3.922  10.618   8.857  1.00  0.00    -0.231 N 
ATOM      8  N20 FTA A   1       4.409  11.606   8.015  1.00  0.00    -0.017 NA
ATOM      9  H15 FTA A   1       3.740   9.640   8.588  1.00  0.00     0.200 HD
ATOM     10  N16 FTA A   1       4.498  12.777   8.761  1.00  0.00    -0.090 NA
ENDBRANCH   2   5
BRANCH   1  11
ATOM     11  N1  FTA A   1       6.003  12.781  12.283  1.00  0.00    -0.389 N 
ATOM     12  H11 FTA A   1       5.890  12.513  13.272  1.00  0.00     0.159 HD
BRANCH  11  13
ATOM     13  C2  FTA A   1       6.971  12.076  11.518  1.00  0.00     0.028 A 
ATOM     14  C4  FTA A   1       7.828  12.721  10.630  1.00  0.00     0.031 A 
ATOM     15  C6  FTA A   1       8.593  11.952   9.743  1.00  0.00     0.031 A 
ATOM     16  C7  FTA A   1       8.523  10.562   9.719  1.00  0.00     0.032 A 
ATOM     17  C5  FTA A   1       7.686   9.934  10.624  1.00  0.00     0.031 A 
ATOM     18  C3  FTA A   1       6.909  10.679  11.503  1.00  0.00     0.031 A 
BRANCH  16  19
ATOM     19  N8  FTA A   1       9.123   9.778   8.700  1.00  0.00    -0.356 N 
ATOM     20  H1  FTA A   1       8.506   9.158   8.156  1.00  0.00     0.166 HD
BRANCH  19  21
ATOM     21  C24 FTA A   1      10.511   9.779   8.366  1.00  0.00     0.032 A 
ATOM     22  C26 FTA A   1      11.481   9.975   9.320  1.00  0.00     0.029 A 
ATOM     23  C28 FTA A   1      12.791  10.137   8.910  1.00  0.00     0.002 A 
ATOM     24  C30 FTA A   1      13.165  10.076   7.578  1.00  0.00     0.000 A 
ATOM     25  C29 FTA A   1      12.213   9.843   6.621  1.00  0.00     0.002 A 
ATOM     26  C27 FTA A   1      10.885   9.683   7.034  1.00  0.00     0.029 A 
ENDBRANCH  19  21
ENDBRANCH  16  19
ENDBRANCH  11  13
ENDBRANCH   1  11
TORSDOF 5
ENDMDL
MODEL 5
REMARK VINA RESULT:    -6.160      1.598      2.139
REMARK INTER + INTRA:          -8.863
REMARK INTER:                  -7.837
REMARK INTRA:                  -1.026
REMARK UNBOUND:                -0.902
REMARK  5 active torsions:
REMARK  status: ('A' for Active; 'I' for Inactive)
REMARK    1  A    between atoms: N8_1  and  C24_2 
REMARK    2  A    between atoms: N8_1  and  C7_8 
REMARK    3  A    between atoms: C2_13  and  N1_14 
REMARK    4  A    between atoms: N1_14  and  C17_15 
REMARK    5  A    between atoms: C14_16  and  C13_19 
ROOT
ATOM      1  C17 FTA A   1       7.811  14.010  11.161  1.00  0.00     0.142 C 
ATOM      2  C14 FTA A   1       8.573  12.949  10.829  1.00  0.00     0.158 C 
ATOM      3  C18 FTA A   1      10.013  13.078  10.770  1.00  0.00     0.069 C 
ATOM      4  N21 FTA A   1      11.153  13.342  10.707  1.00  0.00    -0.197 NA
ENDROOT
BRANCH   2   5
ATOM      5  C13 FTA A   1       7.925  11.649  10.540  1.00  0.00     0.197 A 
ATOM      6  N15 FTA A   1       7.699  10.622  11.453  1.00  0.00    -0.093 NA
ATOM      7  N19 FTA A   1       7.113   9.569  10.762  1.00  0.00    -0.231 N 
ATOM      8  N20 FTA A   1       6.972   9.923   9.428  1.00  0.00    -0.017 NA
ATOM      9  H15 FTA A   1       6.829   8.669  11.174  1.00  0.00     0.200 HD
ATOM     10  N16 FTA A   1       7.465  11.217   9.290  1.00  0.00    -0.090 NA
ENDBRANCH   2   5
BRANCH   1  11
ATOM     11  N1  FTA A   1       6.798  14.366  10.347  1.00  0.00    -0.389 N 
ATOM     12  H11 FTA A   1       7.024  14.545   9.357  1.00  0.00     0.159 HD
BRANCH  11  13
ATOM     13  C2  FTA A   1       5.442  14.512  10.747  1.00  0.00     0.028 A 
ATOM     14  C4  FTA A   1       4.979  15.656  11.391  1.00  0.00     0.031 A 
ATOM     15  C6  FTA A   1       3.700  15.644  11.963  1.00  0.00     0.031 A 
ATOM     16  C7  FTA A   1       2.876  14.523  11.910  1.00  0.00     0.032 A 
ATOM     17  C5  FTA A   1       3.341  13.402  11.245  1.00  0.00     0.031 A 
ATOM     18  C3  FTA A   1       4.612  13.389  10.683  1.00  0.00     0.031 A 
BRANCH  16  19
ATOM     19  N8  FTA A   1       1.673  14.415  12.654  1.00  0.00    -0.356 N 
ATOM     20  H1  FTA A   1       1.757  14.185  13.655  1.00  0.00     0.166 HD
BRANCH  19  21
ATOM     21  C24 FTA A   1       0.358  14.600  12.131  1.00  0.00     0.032 A 
ATOM     22  C26 FTA A   1      -0.749  14.095  12.771  1.00  0.00     0.029 A 
ATOM     23  C28 FTA A   1      -1.971  14.157  12.129  1.00  0.00     0.002 A 
ATOM     24  C30 FTA A   1      -2.126  14.736  10.880  1.00  0.00     0.000 A 
ATOM     25  C29 FTA A   1      -1.037  15.276  10.249  1.00  0.00     0.002 A 
ATOM     26  C27 FTA A   1       0.202  15.211  10.896  1.00  0.00     0.029 A 
ENDBRANCH  19  21
ENDBRANCH  16  19
ENDBRANCH  11  13
ENDBRANCH   1  11
TORSDOF 5
ENDMDL
MODEL 6
REMARK VINA RESULT:    -6.160      3.386      8.422
REMARK INTER + INTRA:          -8.863
REMARK INTER:                  -7.714
REMARK INTRA:                  -1.149
REMARK UNBOUND:                -0.902
REMARK  5 active torsions:
REMARK  status: ('A' for Active; 'I' for Inactive)
REMARK    1  A    between atoms: N8_1  and  C24_2 
REMARK    2  A    between atoms: N8_1  and  C7_8 
REMARK    3  A    between atoms: C2_13  and  N1_14 
REMARK    4  A    between atoms: N1_14  and  C17_15 
REMARK    5  A    between atoms: C14_16  and  C13_19 
ROOT
ATOM      1  C17 FTA A   1       4.743  13.049  11.701  1.00  0.00     0.142 C 
ATOM      2  C14 FTA A   1       5.076  14.177  11.042  1.00  0.00     0.158 C 
ATOM      3  C18 FTA A   1       4.566  14.418   9.709  1.00  0.00     0.069 C 
ATOM      4  N21 FTA A   1       4.128  14.452   8.622  1.00  0.00    -0.197 NA
ENDROOT
BRANCH   2   5
ATOM      5  C13 FTA A   1       5.954  15.172  11.699  1.00  0.00     0.197 A 
ATOM      6  N15 FTA A   1       7.030  15.834  11.111  1.00  0.00    -0.093 NA
ATOM      7  N19 FTA A   1       7.607  16.640  12.084  1.00  0.00    -0.231 N 
ATOM      8  N20 FTA A   1       6.908  16.489  13.273  1.00  0.00    -0.017 NA
ATOM      9  H15 FTA A   1       8.424  17.252  11.945  1.00  0.00     0.200 HD
ATOM     10  N16 FTA A   1       5.876  15.587  13.033  1.00  0.00    -0.090 NA
ENDBRANCH   2   5
BRANCH   1  11
ATOM     11  N1  FTA A   1       5.724  12.278  12.210  1.00  0.00    -0.389 N 
ATOM     12  H11 FTA A   1       5.801  12.222  13.236  1.00  0.00     0.159 HD
BRANCH  11  13
ATOM     13  C2  FTA A   1       6.660  11.536  11.439  1.00  0.00     0.028 A 
ATOM     14  C4  FTA A   1       8.015  11.857  11.409  1.00  0.00     0.031 A 
ATOM     15  C6  FTA A   1       8.839  11.239  10.459  1.00  0.00     0.031 A 
ATOM     16  C7  FTA A   1       8.347  10.314   9.542  1.00  0.00     0.032 A 
ATOM     17  C5  FTA A   1       7.004   9.988   9.601  1.00  0.00     0.031 A 
ATOM     18  C3  FTA A   1       6.167  10.600  10.526  1.00  0.00     0.031 A 
BRANCH  16  19
ATOM     19  N8  FTA A   1       9.109   9.837   8.445  1.00  0.00    -0.356 N 
ATOM     20  H1  FTA A   1       8.621   9.258   7.747  1.00  0.00     0.166 HD
BRANCH  19  21
ATOM     21  C24 FTA A   1      10.498  10.092   8.230  1.00  0.00     0.032 A 
ATOM     22  C26 FTA A   1      11.470   9.436   8.947  1.00  0.00     0.029 A 
ATOM     23  C28 FTA A   1      12.782   9.850   8.815  1.00  0.00     0.002 A 
ATOM     24  C30 FTA A   1      13.155  10.879   7.967  1.00  0.00     0.000 A 
ATOM     25  C29 FTA A   1      12.200  11.515   7.220  1.00  0.00     0.002 A 
ATOM     26  C27 FTA A   1      10.870  11.100   7.353  1.00  0.00     0.029 A 
ENDBRANCH  19  21
ENDBRANCH  16  19
ENDBRANCH  11  13
ENDBRANCH   1  11
TORSDOF 5
ENDMDL
MODEL 7
REMARK VINA RESULT:    -6.108      2.556      8.135
REMARK INTER + INTRA:          -8.796
REMARK INTER:                  -7.863
REMARK INTRA:                  -0.933
REMARK UNBOUND:                -0.902
REMARK  5 active torsions:
REMARK  status: ('A' for Active; 'I' for Inactive)
REMARK    1  A    between atoms: N8_1  and  C24_2 
REMARK    2  A    between atoms: N8_1  and  C7_8 
REMARK    3  A    between atoms: C2_13  and  N1_14 
REMARK    4  A    between atoms: N1_14  and  C17_15 
REMARK    5  A    between atoms: C14_16  and  C13_19 
ROOT
ATOM      1  C17 FTA A   1       1.756  14.901  12.283  1.00  0.00     0.142 C 
ATOM      2  C14 FTA A   1       0.530  14.782  12.831  1.00  0.00     0.158 C 
ATOM      3  C18 FTA A   1       0.370  14.811  14.269  1.00  0.00     0.069 C 
ATOM      4  N21 FTA A   1       0.398  14.794  15.441  1.00  0.00    -0.197 NA
ENDROOT
BRANCH   2   5
ATOM      5  C13 FTA A   1      -0.650  14.637  11.949  1.00  0.00     0.197 A 
ATOM      6  N15 FTA A   1      -1.830  13.963  12.258  1.00  0.00    -0.093 NA
ATOM      7  N19 FTA A   1      -2.653  14.028  11.142  1.00  0.00    -0.231 N 
ATOM      8  N20 FTA A   1      -2.004  14.731  10.137  1.00  0.00    -0.017 NA
ATOM      9  H15 FTA A   1      -3.597  13.620  11.070  1.00  0.00     0.200 HD
ATOM     10  N16 FTA A   1      -0.766  15.118  10.640  1.00  0.00    -0.090 NA
ENDBRANCH   2   5
BRANCH   1  11
ATOM     11  N1  FTA A   1       2.168  13.972  11.400  1.00  0.00    -0.389 N 
ATOM     12  H11 FTA A   1       1.462  13.575  10.763  1.00  0.00     0.159 HD
BRANCH  11  13
ATOM     13  C2  FTA A   1       3.503  13.498  11.278  1.00  0.00     0.028 A 
ATOM     14  C4  FTA A   1       3.793  12.184  10.922  1.00  0.00     0.031 A 
ATOM     15  C6  FTA A   1       5.110  11.721  11.044  1.00  0.00     0.031 A 
ATOM     16  C7  FTA A   1       6.140  12.534  11.512  1.00  0.00     0.032 A 
ATOM     17  C5  FTA A   1       5.840  13.845  11.837  1.00  0.00     0.031 A 
ATOM     18  C3  FTA A   1       4.538  14.319  11.736  1.00  0.00     0.031 A 
BRANCH  16  19
ATOM     19  N8  FTA A   1       7.426  12.034  11.841  1.00  0.00    -0.356 N 
ATOM     20  H1  FTA A   1       7.580  11.732  12.813  1.00  0.00     0.166 HD
BRANCH  19  21
ATOM     21  C24 FTA A   1       8.523  11.917  10.935  1.00  0.00     0.032 A 
ATOM     22  C26 FTA A   1       8.697  10.798  10.156  1.00  0.00     0.029 A 
ATOM     23  C28 FTA A   1       9.867  10.671   9.431  1.00  0.00     0.002 A 
ATOM     24  C30 FTA A   1      10.854  11.643   9.437  1.00  0.00     0.000 A 
ATOM     25  C29 FTA A   1      10.675  12.780  10.179  1.00  0.00     0.002 A 
ATOM     26  C27 FTA A   1       9.493  12.909  10.917  1.00  0.00     0.029 A 
ENDBRANCH  19  21
ENDBRANCH  16  19
ENDBRANCH  11  13
ENDBRANCH   1  11
TORSDOF 5
ENDMDL
MODEL 8
REMARK VINA RESULT:    -6.059      2.783      7.913
REMARK INTER + INTRA:          -8.732
REMARK INTER:                  -7.590
REMARK INTRA:                  -1.142
REMARK UNBOUND:                -0.902
REMARK  5 active torsions:
REMARK  status: ('A' for Active; 'I' for Inactive)
REMARK    1  A    between atoms: N8_1  and  C24_2 
REMARK    2  A    between atoms: N8_1  and  C7_8 
REMARK    3  A    between atoms: C2_13  and  N1_14 
REMARK    4  A    between atoms: N1_14  and  C17_15 
REMARK    5  A    between atoms: C14_16  and  C13_19 
ROOT
ATOM      1  C17 FTA A   1       3.349  17.494  13.427  1.00  0.00     0.142 C 
ATOM      2  C14 FTA A   1       2.954  17.026  14.628  1.00  0.00     0.158 C 
ATOM      3  C18 FTA A   1       3.871  17.030  15.747  1.00  0.00     0.069 C 
ATOM      4  N21 FTA A   1       4.733  17.043  16.542  1.00  0.00    -0.197 NA
ENDROOT
BRANCH   2   5
ATOM      5  C13 FTA A   1       1.572  16.522  14.794  1.00  0.00     0.197 A 
ATOM      6  N15 FTA A   1       0.542  17.158  15.484  1.00  0.00    -0.093 NA
ATOM      7  N19 FTA A   1      -0.569  16.326  15.436  1.00  0.00    -0.231 N 
ATOM      8  N20 FTA A   1      -0.248  15.178  14.728  1.00  0.00    -0.017 NA
ATOM      9  H15 FTA A   1      -1.486  16.530  15.859  1.00  0.00     0.200 HD
ATOM     10  N16 FTA A   1       1.076  15.302  14.319  1.00  0.00    -0.090 NA
ENDBRANCH   2   5
BRANCH   1  11
ATOM     11  N1  FTA A   1       3.192  16.714  12.340  1.00  0.00    -0.389 N 
ATOM     12  H11 FTA A   1       2.469  16.986  11.659  1.00  0.00     0.159 HD
BRANCH  11  13
ATOM     13  C2  FTA A   1       3.950  15.544  12.061  1.00  0.00     0.028 A 
ATOM     14  C4  FTA A   1       3.355  14.364  11.620  1.00  0.00     0.031 A 
ATOM     15  C6  FTA A   1       4.119  13.189  11.585  1.00  0.00     0.031 A 
ATOM     16  C7  FTA A   1       5.454  13.163  11.980  1.00  0.00     0.032 A 
ATOM     17  C5  FTA A   1       6.037  14.348  12.392  1.00  0.00     0.031 A 
ATOM     18  C3  FTA A   1       5.293  15.520  12.446  1.00  0.00     0.031 A 
BRANCH  16  19
ATOM     19  N8  FTA A   1       6.182  11.958  12.152  1.00  0.00    -0.356 N 
ATOM     20  H1  FTA A   1       6.126  11.500  13.074  1.00  0.00     0.166 HD
BRANCH  19  21
ATOM     21  C24 FTA A   1       6.986  11.327  11.155  1.00  0.00     0.032 A 
ATOM     22  C26 FTA A   1       8.328  11.600  11.032  1.00  0.00     0.029 A 
ATOM     23  C28 FTA A   1       9.010  11.093   9.943  1.00  0.00     0.002 A 
ATOM     24  C30 FTA A   1       8.400  10.295   8.990  1.00  0.00     0.000 A 
ATOM     25  C29 FTA A   1       7.072   9.984   9.122  1.00  0.00     0.002 A 
ATOM     26  C27 FTA A   1       6.378  10.500  10.221  1.00  0.00     0.029 A 
ENDBRANCH  19  21
ENDBRANCH  16  19
ENDBRANCH  11  13
ENDBRANCH   1  11
TORSDOF 5
ENDMDL
MODEL 9
REMARK VINA RESULT:    -6.003      2.038      2.966
REMARK INTER + INTRA:          -8.659
REMARK INTER:                  -7.757
REMARK INTRA:                  -0.902
REMARK UNBOUND:                -0.902
REMARK  5 active torsions:
REMARK  status: ('A' for Active; 'I' for Inactive)
REMARK    1  A    between atoms: N8_1  and  C24_2 
REMARK    2  A    between atoms: N8_1  and  C7_8 
REMARK    3  A    between atoms: C2_13  and  N1_14 
REMARK    4  A    between atoms: N1_14  and  C17_15 
REMARK    5  A    between atoms: C14_16  and  C13_19 
ROOT
ATOM      1  C17 FTA A   1       8.566  12.149  11.320  1.00  0.00     0.142 C 
ATOM      2  C14 FTA A   1       9.477  12.257  10.333  1.00  0.00     0.158 C 
ATOM      3  C18 FTA A   1      10.053  13.545  10.011  1.00  0.00     0.069 C 
ATOM      4  N21 FTA A   1      10.388  14.653   9.824  1.00  0.00    -0.197 NA
ENDROOT
BRANCH   2   5
ATOM      5  C13 FTA A   1       9.895  11.044   9.592  1.00  0.00     0.197 A 
ATOM      6  N15 FTA A   1       9.077  10.241   8.800  1.00  0.00    -0.093 NA
ATOM      7  N19 FTA A   1       9.852   9.189   8.330  1.00  0.00    -0.231 N 
ATOM      8  N20 FTA A   1      11.143   9.322   8.819  1.00  0.00    -0.017 NA
ATOM      9  H15 FTA A   1       9.521   8.431   7.717  1.00  0.00     0.200 HD
ATOM     10  N16 FTA A   1      11.175  10.478   9.593  1.00  0.00    -0.090 NA
ENDBRANCH   2   5
BRANCH   1  11
ATOM     11  N1  FTA A   1       7.388  11.551  11.057  1.00  0.00    -0.389 N 
ATOM     12  H11 FTA A   1       7.415  10.588  10.690  1.00  0.00     0.159 HD
BRANCH  11  13
ATOM     13  C2  FTA A   1       6.111  12.146  11.246  1.00  0.00     0.028 A 
ATOM     14  C4  FTA A   1       4.946  11.576  10.740  1.00  0.00     0.031 A 
ATOM     15  C6  FTA A   1       3.760  12.323  10.760  1.00  0.00     0.031 A 
ATOM     16  C7  FTA A   1       3.709  13.618  11.267  1.00  0.00     0.032 A 
ATOM     17  C5  FTA A   1       4.870  14.161  11.789  1.00  0.00     0.031 A 
ATOM     18  C3  FTA A   1       6.059  13.442  11.767  1.00  0.00     0.031 A 
BRANCH  16  19
ATOM     19  N8  FTA A   1       2.581  14.463  11.109  1.00  0.00    -0.356 N 
ATOM     20  H1  FTA A   1       2.442  14.896  10.184  1.00  0.00     0.166 HD
BRANCH  19  21
ATOM     21  C24 FTA A   1       1.624  14.764  12.124  1.00  0.00     0.032 A 
ATOM     22  C26 FTA A   1       1.972  15.458  13.259  1.00  0.00     0.029 A 
ATOM     23  C28 FTA A   1       1.046  15.566  14.279  1.00  0.00     0.002 A 
ATOM     24  C30 FTA A   1      -0.227  15.029  14.186  1.00  0.00     0.000 A 
ATOM     25  C29 FTA A   1      -0.599  14.369  13.045  1.00  0.00     0.002 A 
ATOM     26  C27 FTA A   1       0.339  14.255  12.012  1.00  0.00     0.029 A 
ENDBRANCH  19  21
ENDBRANCH  16  19
ENDBRANCH  11  13
ENDBRANCH   1  11
TORSDOF 5
ENDMDL
