MODEL 1
REMARK VINA RESULT:    -8.585      0.000      0.000
REMARK INTER + INTRA:         -12.110
REMARK INTER:                 -11.118
REMARK INTRA:                  -0.992
REMARK UNBOUND:                -0.765
REMARK  6 active torsions:
REMARK  status: ('A' for Active; 'I' for Inactive)
REMARK    1  A    between atoms: C_3  and  N_4 
REMARK    2  A    between atoms: C_9  and  N_10 
REMARK       I    between atoms: N_10  and  C_12 
REMARK    3  A    between atoms: C_12  and  C_14 
REMARK    4  A    between atoms: C_16  and  O_17 
REMARK    5  A    between atoms: C_24  and  C_25 
REMARK    6  A    between atoms: C_25  and  C_26 
ROOT
HETATM    1  C   UNL     1       1.505   8.477  26.221  0.00  0.00     0.066 C 
HETATM    2  C   UNL     1       0.166   8.868  25.982  0.00  0.00     0.035 C 
HETATM    3  C   UNL     1       1.940   8.449  27.563  0.00  0.00     0.083 C 
HETATM    4  C   UNL     1       1.130   8.886  28.624  0.00  0.00     0.069 C 
HETATM    5  C   UNL     1      -0.113   9.430  28.296  0.00  0.00     0.065 A 
HETATM    6  C   UNL     1      -0.601   9.472  26.996  0.00  0.00     0.020 A 
HETATM    7  N   UNL     1      -1.090  10.001  29.062  0.00  0.00    -0.277 N 
HETATM    8  H   UNL     1      -1.103  10.090  30.070  0.00  0.00     0.189 HD
HETATM    9  N   UNL     1      -2.112  10.516  28.361  0.00  0.00    -0.178 NA
HETATM   10  C   UNL     1      -1.823  10.231  27.078  0.00  0.00     0.071 A 
ENDROOT
BRANCH   1  11
HETATM   11  C   UNL     1       2.487   8.115  25.122  0.00  0.00     0.260 C 
HETATM   12  N   UNL     1       3.191   9.112  24.385  0.00  0.00    -0.318 N 
HETATM   13  C   UNL     1       2.974  10.537  24.662  0.00  0.00     0.159 C 
HETATM   14  O   UNL     1       2.683   6.898  25.007  0.00  0.00    -0.267 OA
BRANCH  12  15
HETATM   15  C   UNL     1       4.050   8.805  23.244  0.00  0.00     0.037 A 
HETATM   16  C   UNL     1       4.221   9.725  22.201  0.00  0.00     0.032 A 
HETATM   17  C   UNL     1       4.889   9.412  21.007  0.00  0.00     0.031 A 
HETATM   18  C   UNL     1       5.449   8.158  20.775  0.00  0.00     0.029 A 
HETATM   19  C   UNL     1       5.390   7.279  21.858  0.00  0.00     0.031 A 
HETATM   20  C   UNL     1       4.712   7.589  23.067  0.00  0.00     0.032 A 
BRANCH  18  21
HETATM   21  N   UNL     1       6.002   7.836  19.546  0.00  0.00    -0.390 N 
HETATM   22  C   UNL     1       7.102   8.589  18.960  0.00  0.00     0.149 C 
HETATM   23  C   UNL     1       5.479   6.751  18.718  0.00  0.00     0.149 C 
ENDBRANCH  18  21
ENDBRANCH  12  15
ENDBRANCH   1  11
BRANCH   3  24
HETATM   24  O   UNL     1       3.181   7.993  27.944  0.00  0.00    -0.360 OA
HETATM   25  H   UNL     1       3.209   7.989  28.929  0.00  0.00     0.217 HD
ENDBRANCH   3  24
BRANCH  10  26
HETATM   26  C   UNL     1      -2.751  10.741  25.996  0.00  0.00     0.100 C 
BRANCH  26  27
HETATM   27  C   UNL     1      -2.006  11.542  24.927  0.00  0.00    -0.052 A 
HETATM   28  C   UNL     1      -2.295  11.450  23.559  0.00  0.00     0.007 A 
HETATM   29  C   UNL     1      -1.607  12.221  22.620  0.00  0.00     0.001 A 
HETATM   30  C   UNL     1      -0.545  13.027  23.010  0.00  0.00     0.007 A 
HETATM   31  C   UNL     1      -0.126  13.037  24.343  0.00  0.00    -0.061 A 
HETATM   32  C   UNL     1      -0.886  12.331  25.299  0.00  0.00     0.014 A 
HETATM   33  C   UNL     1       1.123  13.793  24.704  0.00  0.00     0.048 C 
ENDBRANCH  26  27
ENDBRANCH  10  26
TORSDOF 6
ENDMDL
MODEL 2
REMARK VINA RESULT:    -8.232      3.402      8.674
REMARK INTER + INTRA:         -11.644
REMARK INTER:                 -10.701
REMARK INTRA:                  -0.943
REMARK UNBOUND:                -0.765
REMARK  6 active torsions:
REMARK  status: ('A' for Active; 'I' for Inactive)
REMARK    1  A    between atoms: C_3  and  N_4 
REMARK    2  A    between atoms: C_9  and  N_10 
REMARK       I    between atoms: N_10  and  C_12 
REMARK    3  A    between atoms: C_12  and  C_14 
REMARK    4  A    between atoms: C_16  and  O_17 
REMARK    5  A    between atoms: C_24  and  C_25 
REMARK    6  A    between atoms: C_25  and  C_26 
ROOT
HETATM    1  C   UNL     1       4.370   6.949  22.849  0.00  0.00     0.066 C 
HETATM    2  C   UNL     1       3.834   7.726  21.794  0.00  0.00     0.035 C 
HETATM    3  C   UNL     1       5.659   6.407  22.662  0.00  0.00     0.083 C 
HETATM    4  C   UNL     1       6.357   6.532  21.449  0.00  0.00     0.069 C 
HETATM    5  C   UNL     1       5.692   7.154  20.391  0.00  0.00     0.065 A 
HETATM    6  C   UNL     1       4.429   7.718  20.519  0.00  0.00     0.020 A 
HETATM    7  N   UNL     1       6.048   7.367  19.089  0.00  0.00    -0.277 N 
HETATM    8  H   UNL     1       6.931   7.140  18.651  0.00  0.00     0.189 HD
HETATM    9  N   UNL     1       5.080   7.912  18.334  0.00  0.00    -0.178 NA
HETATM   10  C   UNL     1       4.057   8.112  19.184  0.00  0.00     0.071 A 
ENDROOT
BRANCH   1  11
HETATM   11  C   UNL     1       3.629   6.656  24.141  0.00  0.00     0.260 C 
HETATM   12  N   UNL     1       3.181   7.700  25.003  0.00  0.00    -0.318 N 
HETATM   13  C   UNL     1       3.436   9.105  24.668  0.00  0.00     0.159 C 
HETATM   14  O   UNL     1       3.375   5.457  24.311  0.00  0.00    -0.267 OA
BRANCH  12  15
HETATM   15  C   UNL     1       2.574   7.452  26.309  0.00  0.00     0.037 A 
HETATM   16  C   UNL     1       1.217   7.718  26.536  0.00  0.00     0.032 A 
HETATM   17  C   UNL     1       0.630   7.665  27.809  0.00  0.00     0.031 A 
HETATM   18  C   UNL     1       1.356   7.325  28.949  0.00  0.00     0.029 A 
HETATM   19  C   UNL     1       2.676   6.938  28.711  0.00  0.00     0.031 A 
HETATM   20  C   UNL     1       3.276   6.994  27.425  0.00  0.00     0.032 A 
BRANCH  18  21
HETATM   21  N   UNL     1       0.783   7.391  30.209  0.00  0.00    -0.390 N 
HETATM   22  C   UNL     1       0.742   8.622  30.987  0.00  0.00     0.149 C 
HETATM   23  C   UNL     1       0.232   6.214  30.877  0.00  0.00     0.149 C 
ENDBRANCH  18  21
ENDBRANCH  12  15
ENDBRANCH   1  11
BRANCH   3  24
HETATM   24  O   UNL     1       6.337   5.720  23.641  0.00  0.00    -0.360 OA
HETATM   25  H   UNL     1       6.134   6.149  24.505  0.00  0.00     0.217 HD
ENDBRANCH   3  24
BRANCH  10  26
HETATM   26  C   UNL     1       2.756   8.658  18.634  0.00  0.00     0.100 C 
BRANCH  26  27
HETATM   27  C   UNL     1       1.985   7.611  17.828  0.00  0.00    -0.052 A 
HETATM   28  C   UNL     1       1.903   7.627  16.430  0.00  0.00     0.007 A 
HETATM   29  C   UNL     1       1.210   6.634  15.733  0.00  0.00     0.001 A 
HETATM   30  C   UNL     1       0.498   5.658  16.418  0.00  0.00     0.007 A 
HETATM   31  C   UNL     1       0.430   5.690  17.814  0.00  0.00    -0.061 A 
HETATM   32  C   UNL     1       1.209   6.637  18.510  0.00  0.00     0.014 A 
HETATM   33  C   UNL     1      -0.478   4.719  18.517  0.00  0.00     0.048 C 
ENDBRANCH  26  27
ENDBRANCH  10  26
TORSDOF 6
ENDMDL
MODEL 3
REMARK VINA RESULT:    -8.229      1.332      1.964
REMARK INTER + INTRA:         -11.640
REMARK INTER:                 -10.694
REMARK INTRA:                  -0.946
REMARK UNBOUND:                -0.765
REMARK  6 active torsions:
REMARK  status: ('A' for Active; 'I' for Inactive)
REMARK    1  A    between atoms: C_3  and  N_4 
REMARK    2  A    between atoms: C_9  and  N_10 
REMARK       I    between atoms: N_10  and  C_12 
REMARK    3  A    between atoms: C_12  and  C_14 
REMARK    4  A    between atoms: C_16  and  O_17 
REMARK    5  A    between atoms: C_24  and  C_25 
REMARK    6  A    between atoms: C_25  and  C_26 
ROOT
HETATM    1  C   UNL     1       1.171   7.713  26.299  0.00  0.00     0.066 C 
HETATM    2  C   UNL     1      -0.076   8.345  26.080  0.00  0.00     0.035 C 
HETATM    3  C   UNL     1       1.711   7.781  27.601  0.00  0.00     0.083 C 
HETATM    4  C   UNL     1       1.106   8.529  28.625  0.00  0.00     0.069 C 
HETATM    5  C   UNL     1      -0.024   9.276  28.288  0.00  0.00     0.065 A 
HETATM    6  C   UNL     1      -0.609   9.238  27.029  0.00  0.00     0.020 A 
HETATM    7  N   UNL     1      -0.790  10.148  29.010  0.00  0.00    -0.277 N 
HETATM    8  H   UNL     1      -0.695  10.379  29.991  0.00  0.00     0.189 HD
HETATM    9  N   UNL     1      -1.746  10.765  28.297  0.00  0.00    -0.178 NA
HETATM   10  C   UNL     1      -1.637  10.246  27.061  0.00  0.00     0.071 A 
ENDROOT
BRANCH   1  11
HETATM   11  C   UNL     1       1.955   6.995  25.215  0.00  0.00     0.260 C 
HETATM   12  N   UNL     1       2.794   7.700  24.303  0.00  0.00    -0.318 N 
HETATM   13  C   UNL     1       2.916   9.161  24.378  0.00  0.00     0.159 C 
HETATM   14  O   UNL     1       1.871   5.761  25.271  0.00  0.00    -0.267 OA
BRANCH  12  15
HETATM   15  C   UNL     1       3.467   7.058  23.177  0.00  0.00     0.037 A 
HETATM   16  C   UNL     1       3.702   7.755  21.984  0.00  0.00     0.032 A 
HETATM   17  C   UNL     1       4.181   7.136  20.819  0.00  0.00     0.031 A 
HETATM   18  C   UNL     1       4.477   5.776  20.767  0.00  0.00     0.029 A 
HETATM   19  C   UNL     1       4.364   5.103  21.984  0.00  0.00     0.031 A 
HETATM   20  C   UNL     1       3.875   5.723  23.165  0.00  0.00     0.032 A 
BRANCH  18  21
HETATM   21  N   UNL     1       4.839   5.166  19.576  0.00  0.00    -0.390 N 
HETATM   22  C   UNL     1       4.829   5.869  18.301  0.00  0.00     0.149 C 
HETATM   23  C   UNL     1       5.199   3.751  19.504  0.00  0.00     0.149 C 
ENDBRANCH  18  21
ENDBRANCH  12  15
ENDBRANCH   1  11
BRANCH   3  24
HETATM   24  O   UNL     1       2.861   7.128  27.976  0.00  0.00    -0.360 OA
HETATM   25  H   UNL     1       3.626   7.660  27.654  0.00  0.00     0.217 HD
ENDBRANCH   3  24
BRANCH  10  26
HETATM   26  C   UNL     1      -2.536  10.785  25.968  0.00  0.00     0.100 C 
BRANCH  26  27
HETATM   27  C   UNL     1      -1.753  11.566  24.911  0.00  0.00    -0.052 A 
HETATM   28  C   UNL     1      -0.588  12.289  25.197  0.00  0.00     0.007 A 
HETATM   29  C   UNL     1       0.109  12.966  24.194  0.00  0.00     0.001 A 
HETATM   30  C   UNL     1      -0.392  13.022  22.900  0.00  0.00     0.007 A 
HETATM   31  C   UNL     1      -1.627  12.438  22.601  0.00  0.00    -0.061 A 
HETATM   32  C   UNL     1      -2.277  11.677  23.596  0.00  0.00     0.014 A 
HETATM   33  C   UNL     1      -2.218  12.653  21.235  0.00  0.00     0.048 C 
ENDBRANCH  26  27
ENDBRANCH  10  26
TORSDOF 6
ENDMDL
MODEL 4
REMARK VINA RESULT:    -8.052      3.231      9.104
REMARK INTER + INTRA:         -11.407
REMARK INTER:                 -10.480
REMARK INTRA:                  -0.927
REMARK UNBOUND:                -0.765
REMARK  6 active torsions:
REMARK  status: ('A' for Active; 'I' for Inactive)
REMARK    1  A    between atoms: C_3  and  N_4 
REMARK    2  A    between atoms: C_9  and  N_10 
REMARK       I    between atoms: N_10  and  C_12 
REMARK    3  A    between atoms: C_12  and  C_14 
REMARK    4  A    between atoms: C_16  and  O_17 
REMARK    5  A    between atoms: C_24  and  C_25 
REMARK    6  A    between atoms: C_25  and  C_26 
ROOT
HETATM    1  C   UNL     1       4.217   7.866  21.949  0.00  0.00     0.066 C 
HETATM    2  C   UNL     1       3.721   8.166  20.658  0.00  0.00     0.035 C 
HETATM    3  C   UNL     1       5.305   6.972  22.032  0.00  0.00     0.083 C 
HETATM    4  C   UNL     1       5.822   6.313  20.904  0.00  0.00     0.069 C 
HETATM    5  C   UNL     1       5.167   6.517  19.689  0.00  0.00     0.065 A 
HETATM    6  C   UNL     1       4.100   7.395  19.543  0.00  0.00     0.020 A 
HETATM    7  N   UNL     1       5.362   5.984  18.446  0.00  0.00    -0.277 N 
HETATM    8  H   UNL     1       6.094   5.345  18.162  0.00  0.00     0.189 HD
HETATM    9  N   UNL     1       4.444   6.349  17.537  0.00  0.00    -0.178 NA
HETATM   10  C   UNL     1       3.632   7.197  18.195  0.00  0.00     0.071 A 
ENDROOT
BRANCH   1  11
HETATM   11  C   UNL     1       3.631   8.432  23.230  0.00  0.00     0.260 C 
HETATM   12  N   UNL     1       2.750   7.671  24.053  0.00  0.00    -0.318 N 
HETATM   13  C   UNL     1       2.368   6.306  23.674  0.00  0.00     0.159 C 
HETATM   14  O   UNL     1       4.068   9.551  23.528  0.00  0.00    -0.267 OA
BRANCH  12  15
HETATM   15  C   UNL     1       2.075   8.223  25.225  0.00  0.00     0.037 A 
HETATM   16  C   UNL     1       2.613   8.063  26.509  0.00  0.00     0.032 A 
HETATM   17  C   UNL     1       1.921   8.418  27.678  0.00  0.00     0.031 A 
HETATM   18  C   UNL     1       0.645   8.976  27.646  0.00  0.00     0.029 A 
HETATM   19  C   UNL     1       0.156   9.252  26.368  0.00  0.00     0.031 A 
HETATM   20  C   UNL     1       0.850   8.891  25.182  0.00  0.00     0.032 A 
BRANCH  18  21
HETATM   21  N   UNL     1      -0.064   9.211  28.813  0.00  0.00    -0.390 N 
HETATM   22  C   UNL     1      -1.211  10.106  28.866  0.00  0.00     0.149 C 
HETATM   23  C   UNL     1       0.327   8.624  30.093  0.00  0.00     0.149 C 
ENDBRANCH  18  21
ENDBRANCH  12  15
ENDBRANCH   1  11
BRANCH   3  24
HETATM   24  O   UNL     1       5.947   6.672  23.211  0.00  0.00    -0.360 OA
HETATM   25  H   UNL     1       5.261   6.591  23.914  0.00  0.00     0.217 HD
ENDBRANCH   3  24
BRANCH  10  26
HETATM   26  C   UNL     1       2.424   7.751  17.470  0.00  0.00     0.100 C 
BRANCH  26  27
HETATM   27  C   UNL     1       1.451   6.650  17.045  0.00  0.00    -0.052 A 
HETATM   28  C   UNL     1       0.563   6.026  17.932  0.00  0.00     0.007 A 
HETATM   29  C   UNL     1      -0.327   5.043  17.493  0.00  0.00     0.001 A 
HETATM   30  C   UNL     1      -0.284   4.585  16.182  0.00  0.00     0.007 A 
HETATM   31  C   UNL     1       0.685   5.075  15.301  0.00  0.00    -0.061 A 
HETATM   32  C   UNL     1       1.515   6.133  15.724  0.00  0.00     0.014 A 
HETATM   33  C   UNL     1       0.809   4.446  13.940  0.00  0.00     0.048 C 
ENDBRANCH  26  27
ENDBRANCH  10  26
TORSDOF 6
ENDMDL
MODEL 5
REMARK VINA RESULT:    -7.977      3.084      8.799
REMARK INTER + INTRA:         -11.308
REMARK INTER:                 -10.313
REMARK INTRA:                  -0.995
REMARK UNBOUND:                -0.765
REMARK  6 active torsions:
REMARK  status: ('A' for Active; 'I' for Inactive)
REMARK    1  A    between atoms: C_3  and  N_4 
REMARK    2  A    between atoms: C_9  and  N_10 
REMARK       I    between atoms: N_10  and  C_12 
REMARK    3  A    between atoms: C_12  and  C_14 
REMARK    4  A    between atoms: C_16  and  O_17 
REMARK    5  A    between atoms: C_24  and  C_25 
REMARK    6  A    between atoms: C_25  and  C_26 
ROOT
HETATM    1  C   UNL     1       4.165   7.773  22.402  0.00  0.00     0.066 C 
HETATM    2  C   UNL     1       3.696   8.221  21.144  0.00  0.00     0.035 C 
HETATM    3  C   UNL     1       5.301   6.935  22.407  0.00  0.00     0.083 C 
HETATM    4  C   UNL     1       5.893   6.466  21.223  0.00  0.00     0.069 C 
HETATM    5  C   UNL     1       5.267   6.800  20.020  0.00  0.00     0.065 A 
HETATM    6  C   UNL     1       4.157   7.632  19.951  0.00  0.00     0.020 A 
HETATM    7  N   UNL     1       5.534   6.453  18.726  0.00  0.00    -0.277 N 
HETATM    8  H   UNL     1       6.311   5.900  18.388  0.00  0.00     0.189 HD
HETATM    9  N   UNL     1       4.627   6.890  17.838  0.00  0.00    -0.178 NA
HETATM   10  C   UNL     1       3.746   7.596  18.571  0.00  0.00     0.071 A 
ENDROOT
BRANCH   1  11
HETATM   11  C   UNL     1       3.506   8.126  23.723  0.00  0.00     0.260 C 
HETATM   12  N   UNL     1       2.680   7.197  24.421  0.00  0.00    -0.318 N 
HETATM   13  C   UNL     1       2.430   5.860  23.870  0.00  0.00     0.159 C 
HETATM   14  O   UNL     1       3.833   9.234  24.166  0.00  0.00    -0.267 OA
BRANCH  12  15
HETATM   15  C   UNL     1       1.935   7.542  25.630  0.00  0.00     0.037 A 
HETATM   16  C   UNL     1       0.592   7.936  25.562  0.00  0.00     0.032 A 
HETATM   17  C   UNL     1      -0.112   8.444  26.664  0.00  0.00     0.031 A 
HETATM   18  C   UNL     1       0.472   8.579  27.922  0.00  0.00     0.029 A 
HETATM   19  C   UNL     1       1.768   8.072  28.025  0.00  0.00     0.031 A 
HETATM   20  C   UNL     1       2.487   7.561  26.912  0.00  0.00     0.032 A 
BRANCH  18  21
HETATM   21  N   UNL     1      -0.206   9.189  28.965  0.00  0.00    -0.390 N 
HETATM   22  C   UNL     1      -1.188  10.243  28.751  0.00  0.00     0.149 C 
HETATM   23  C   UNL     1       0.060   8.861  30.364  0.00  0.00     0.149 C 
ENDBRANCH  18  21
ENDBRANCH  12  15
ENDBRANCH   1  11
BRANCH   3  24
HETATM   24  O   UNL     1       5.919   6.511  23.560  0.00  0.00    -0.360 OA
HETATM   25  H   UNL     1       6.845   6.262  23.329  0.00  0.00     0.217 HD
ENDBRANCH   3  24
BRANCH  10  26
HETATM   26  C   UNL     1       2.532   8.179  17.879  0.00  0.00     0.100 C 
BRANCH  26  27
HETATM   27  C   UNL     1       1.637   7.096  17.273  0.00  0.00    -0.052 A 
HETATM   28  C   UNL     1       1.360   7.008  15.903  0.00  0.00     0.007 A 
HETATM   29  C   UNL     1       0.558   5.985  15.390  0.00  0.00     0.001 A 
HETATM   30  C   UNL     1      -0.068   5.084  16.242  0.00  0.00     0.007 A 
HETATM   31  C   UNL     1       0.063   5.224  17.627  0.00  0.00    -0.061 A 
HETATM   32  C   UNL     1       0.949   6.199  18.131  0.00  0.00     0.014 A 
HETATM   33  C   UNL     1      -0.754   4.335  18.525  0.00  0.00     0.048 C 
ENDBRANCH  26  27
ENDBRANCH  10  26
TORSDOF 6
ENDMDL
MODEL 6
REMARK VINA RESULT:    -7.419      4.431      7.375
REMARK INTER + INTRA:         -10.570
REMARK INTER:                  -9.907
REMARK INTRA:                  -0.663
REMARK UNBOUND:                -0.765
REMARK  6 active torsions:
REMARK  status: ('A' for Active; 'I' for Inactive)
REMARK    1  A    between atoms: C_3  and  N_4 
REMARK    2  A    between atoms: C_9  and  N_10 
REMARK       I    between atoms: N_10  and  C_12 
REMARK    3  A    between atoms: C_12  and  C_14 
REMARK    4  A    between atoms: C_16  and  O_17 
REMARK    5  A    between atoms: C_24  and  C_25 
REMARK    6  A    between atoms: C_25  and  C_26 
ROOT
HETATM    1  C   UNL     1       3.922   6.695  20.083  0.00  0.00     0.066 C 
HETATM    2  C   UNL     1       3.501   6.485  21.417  0.00  0.00     0.035 C 
HETATM    3  C   UNL     1       4.662   7.866  19.815  0.00  0.00     0.083 C 
HETATM    4  C   UNL     1       4.892   8.848  20.793  0.00  0.00     0.069 C 
HETATM    5  C   UNL     1       4.291   8.661  22.039  0.00  0.00     0.065 A 
HETATM    6  C   UNL     1       3.564   7.523  22.365  0.00  0.00     0.020 A 
HETATM    7  N   UNL     1       4.253   9.442  23.160  0.00  0.00    -0.277 N 
HETATM    8  H   UNL     1       4.725  10.325  23.307  0.00  0.00     0.189 HD
HETATM    9  N   UNL     1       3.468   8.965  24.139  0.00  0.00    -0.178 NA
HETATM   10  C   UNL     1       3.004   7.795  23.664  0.00  0.00     0.071 A 
ENDROOT
BRANCH   1  11
HETATM   11  C   UNL     1       3.604   5.749  18.939  0.00  0.00     0.260 C 
HETATM   12  N   UNL     1       2.453   5.927  18.114  0.00  0.00    -0.318 N 
HETATM   13  C   UNL     1       1.525   7.037  18.359  0.00  0.00     0.159 C 
HETATM   14  O   UNL     1       4.475   4.893  18.739  0.00  0.00    -0.267 OA
BRANCH  12  15
HETATM   15  C   UNL     1       2.053   4.972  17.085  0.00  0.00     0.037 A 
HETATM   16  C   UNL     1       1.617   5.407  15.826  0.00  0.00     0.032 A 
HETATM   17  C   UNL     1       1.058   4.545  14.870  0.00  0.00     0.031 A 
HETATM   18  C   UNL     1       0.908   3.179  15.098  0.00  0.00     0.029 A 
HETATM   19  C   UNL     1       1.454   2.720  16.298  0.00  0.00     0.031 A 
HETATM   20  C   UNL     1       2.017   3.588  17.271  0.00  0.00     0.032 A 
BRANCH  18  21
HETATM   21  N   UNL     1       0.249   2.369  14.187  0.00  0.00    -0.390 N 
HETATM   22  C   UNL     1      -1.082   2.677  13.684  0.00  0.00     0.149 C 
HETATM   23  C   UNL     1       0.819   1.110  13.711  0.00  0.00     0.149 C 
ENDBRANCH  18  21
ENDBRANCH  12  15
ENDBRANCH   1  11
BRANCH   3  24
HETATM   24  O   UNL     1       5.217   8.143  18.588  0.00  0.00    -0.360 OA
HETATM   25  H   UNL     1       4.928   7.439  17.962  0.00  0.00     0.217 HD
ENDBRANCH   3  24
BRANCH  10  26
HETATM   26  C   UNL     1       2.014   7.015  24.504  0.00  0.00     0.100 C 
BRANCH  26  27
HETATM   27  C   UNL     1       1.169   7.927  25.395  0.00  0.00    -0.052 A 
HETATM   28  C   UNL     1       1.205   7.878  26.795  0.00  0.00     0.007 A 
HETATM   29  C   UNL     1       0.435   8.750  27.570  0.00  0.00     0.001 A 
HETATM   30  C   UNL     1      -0.464   9.621  26.969  0.00  0.00     0.007 A 
HETATM   31  C   UNL     1      -0.640   9.601  25.582  0.00  0.00    -0.061 A 
HETATM   32  C   UNL     1       0.208   8.787  24.802  0.00  0.00     0.014 A 
HETATM   33  C   UNL     1      -1.733  10.440  24.978  0.00  0.00     0.048 C 
ENDBRANCH  26  27
ENDBRANCH  10  26
TORSDOF 6
ENDMDL
MODEL 7
REMARK VINA RESULT:    -7.414      1.898      2.437
REMARK INTER + INTRA:         -10.564
REMARK INTER:                  -9.798
REMARK INTRA:                  -0.765
REMARK UNBOUND:                -0.765
REMARK  6 active torsions:
REMARK  status: ('A' for Active; 'I' for Inactive)
REMARK    1  A    between atoms: C_3  and  N_4 
REMARK    2  A    between atoms: C_9  and  N_10 
REMARK       I    between atoms: N_10  and  C_12 
REMARK    3  A    between atoms: C_12  and  C_14 
REMARK    4  A    between atoms: C_16  and  O_17 
REMARK    5  A    between atoms: C_24  and  C_25 
REMARK    6  A    between atoms: C_25  and  C_26 
ROOT
HETATM    1  C   UNL     1       1.881   7.850  25.945  0.00  0.00     0.066 C 
HETATM    2  C   UNL     1       0.552   8.267  26.191  0.00  0.00     0.035 C 
HETATM    3  C   UNL     1       2.776   7.864  27.036  0.00  0.00     0.083 C 
HETATM    4  C   UNL     1       2.413   8.366  28.297  0.00  0.00     0.069 C 
HETATM    5  C   UNL     1       1.142   8.930  28.418  0.00  0.00     0.065 A 
HETATM    6  C   UNL     1       0.214   8.933  27.384  0.00  0.00     0.020 A 
HETATM    7  N   UNL     1       0.518   9.559  29.459  0.00  0.00    -0.277 N 
HETATM    8  H   UNL     1       0.874   9.689  30.397  0.00  0.00     0.189 HD
HETATM    9  N   UNL     1      -0.684  10.072  29.153  0.00  0.00    -0.178 NA
HETATM   10  C   UNL     1      -0.885   9.727  27.868  0.00  0.00     0.071 A 
ENDROOT
BRANCH   1  11
HETATM   11  C   UNL     1       2.391   7.416  24.582  0.00  0.00     0.260 C 
HETATM   12  N   UNL     1       2.557   6.040  24.246  0.00  0.00    -0.318 N 
HETATM   13  C   UNL     1       2.248   4.990  25.224  0.00  0.00     0.159 C 
HETATM   14  O   UNL     1       2.545   8.349  23.785  0.00  0.00    -0.267 OA
BRANCH  12  15
HETATM   15  C   UNL     1       3.157   5.591  22.992  0.00  0.00     0.037 A 
HETATM   16  C   UNL     1       4.179   6.326  22.377  0.00  0.00     0.032 A 
HETATM   17  C   UNL     1       4.664   6.036  21.092  0.00  0.00     0.031 A 
HETATM   18  C   UNL     1       4.170   4.977  20.334  0.00  0.00     0.029 A 
HETATM   19  C   UNL     1       3.241   4.167  20.989  0.00  0.00     0.031 A 
HETATM   20  C   UNL     1       2.745   4.458  22.287  0.00  0.00     0.032 A 
BRANCH  18  21
HETATM   21  N   UNL     1       4.582   4.780  19.025  0.00  0.00    -0.390 N 
HETATM   22  C   UNL     1       4.754   5.878  18.084  0.00  0.00     0.149 C 
HETATM   23  C   UNL     1       4.815   3.446  18.475  0.00  0.00     0.149 C 
ENDBRANCH  18  21
ENDBRANCH  12  15
ENDBRANCH   1  11
BRANCH   3  24
HETATM   24  O   UNL     1       4.065   7.390  26.961  0.00  0.00    -0.360 OA
HETATM   25  H   UNL     1       4.036   6.512  26.516  0.00  0.00     0.217 HD
ENDBRANCH   3  24
BRANCH  10  26
HETATM   26  C   UNL     1      -2.139  10.218  27.175  0.00  0.00     0.100 C 
BRANCH  26  27
HETATM   27  C   UNL     1      -1.825  10.988  25.891  0.00  0.00    -0.052 A 
HETATM   28  C   UNL     1      -2.503  10.775  24.684  0.00  0.00     0.007 A 
HETATM   29  C   UNL     1      -2.201  11.521  23.542  0.00  0.00     0.001 A 
HETATM   30  C   UNL     1      -1.146  12.425  23.548  0.00  0.00     0.007 A 
HETATM   31  C   UNL     1      -0.348  12.562  24.687  0.00  0.00    -0.061 A 
HETATM   32  C   UNL     1      -0.719  11.877  25.863  0.00  0.00     0.014 A 
HETATM   33  C   UNL     1       0.881  13.427  24.611  0.00  0.00     0.048 C 
ENDBRANCH  26  27
ENDBRANCH  10  26
TORSDOF 6
ENDMDL
MODEL 8
REMARK VINA RESULT:    -7.405      3.522      4.291
REMARK INTER + INTRA:         -10.551
REMARK INTER:                  -9.645
REMARK INTRA:                  -0.906
REMARK UNBOUND:                -0.765
REMARK  6 active torsions:
REMARK  status: ('A' for Active; 'I' for Inactive)
REMARK    1  A    between atoms: C_3  and  N_4 
REMARK    2  A    between atoms: C_9  and  N_10 
REMARK       I    between atoms: N_10  and  C_12 
REMARK    3  A    between atoms: C_12  and  C_14 
REMARK    4  A    between atoms: C_16  and  O_17 
REMARK    5  A    between atoms: C_24  and  C_25 
REMARK    6  A    between atoms: C_25  and  C_26 
ROOT
HETATM    1  C   UNL     1       1.269   7.491  27.093  0.00  0.00     0.066 C 
HETATM    2  C   UNL     1       0.118   8.079  26.518  0.00  0.00     0.035 C 
HETATM    3  C   UNL     1       1.547   7.798  28.442  0.00  0.00     0.083 C 
HETATM    4  C   UNL     1       0.788   8.729  29.171  0.00  0.00     0.069 C 
HETATM    5  C   UNL     1      -0.221   9.407  28.485  0.00  0.00     0.065 A 
HETATM    6  C   UNL     1      -0.550   9.137  27.162  0.00  0.00     0.020 A 
HETATM    7  N   UNL     1      -1.074  10.403  28.868  0.00  0.00    -0.277 N 
HETATM    8  H   UNL     1      -1.162  10.814  29.789  0.00  0.00     0.189 HD
HETATM    9  N   UNL     1      -1.844  10.883  27.878  0.00  0.00    -0.178 NA
HETATM   10  C   UNL     1      -1.520  10.140  26.804  0.00  0.00     0.071 A 
ENDROOT
BRANCH   1  11
HETATM   11  C   UNL     1       2.218   6.577  26.338  0.00  0.00     0.260 C 
HETATM   12  N   UNL     1       2.016   5.167  26.281  0.00  0.00    -0.318 N 
HETATM   13  C   UNL     1       0.878   4.548  26.970  0.00  0.00     0.159 C 
HETATM   14  O   UNL     1       3.099   7.179  25.711  0.00  0.00    -0.267 OA
BRANCH  12  15
HETATM   15  C   UNL     1       2.970   4.248  25.666  0.00  0.00     0.037 A 
HETATM   16  C   UNL     1       3.017   4.079  24.276  0.00  0.00     0.032 A 
HETATM   17  C   UNL     1       3.787   3.086  23.652  0.00  0.00     0.031 A 
HETATM   18  C   UNL     1       4.582   2.198  24.374  0.00  0.00     0.029 A 
HETATM   19  C   UNL     1       4.637   2.441  25.747  0.00  0.00     0.031 A 
HETATM   20  C   UNL     1       3.856   3.442  26.384  0.00  0.00     0.032 A 
BRANCH  18  21
HETATM   21  N   UNL     1       5.243   1.154  23.746  0.00  0.00    -0.390 N 
HETATM   22  C   UNL     1       4.848   0.651  22.437  0.00  0.00     0.149 C 
HETATM   23  C   UNL     1       6.350   0.441  24.379  0.00  0.00     0.149 C 
ENDBRANCH  18  21
ENDBRANCH  12  15
ENDBRANCH   1  11
BRANCH   3  24
HETATM   24  O   UNL     1       2.573   7.220  29.152  0.00  0.00    -0.360 OA
HETATM   25  H   UNL     1       2.171   6.673  29.867  0.00  0.00     0.217 HD
ENDBRANCH   3  24
BRANCH  10  26
HETATM   26  C   UNL     1      -2.163  10.471  25.474  0.00  0.00     0.100 C 
BRANCH  26  27
HETATM   27  C   UNL     1      -1.383  11.539  24.706  0.00  0.00    -0.052 A 
HETATM   28  C   UNL     1      -0.491  12.429  25.320  0.00  0.00     0.007 A 
HETATM   29  C   UNL     1       0.221  13.371  24.574  0.00  0.00     0.001 A 
HETATM   30  C   UNL     1      -0.014  13.518  23.213  0.00  0.00     0.007 A 
HETATM   31  C   UNL     1      -1.001  12.752  22.586  0.00  0.00    -0.061 A 
HETATM   32  C   UNL     1      -1.647  11.739  23.325  0.00  0.00     0.014 A 
HETATM   33  C   UNL     1      -1.343  13.046  21.151  0.00  0.00     0.048 C 
ENDBRANCH  26  27
ENDBRANCH  10  26
TORSDOF 6
ENDMDL
MODEL 9
REMARK VINA RESULT:    -7.300      2.838      3.772
REMARK INTER + INTRA:         -10.413
REMARK INTER:                  -9.251
REMARK INTRA:                  -1.162
REMARK UNBOUND:                -0.765
REMARK  6 active torsions:
REMARK  status: ('A' for Active; 'I' for Inactive)
REMARK    1  A    between atoms: C_3  and  N_4 
REMARK    2  A    between atoms: C_9  and  N_10 
REMARK       I    between atoms: N_10  and  C_12 
REMARK    3  A    between atoms: C_12  and  C_14 
REMARK    4  A    between atoms: C_16  and  O_17 
REMARK    5  A    between atoms: C_24  and  C_25 
REMARK    6  A    between atoms: C_25  and  C_26 
ROOT
HETATM    1  C   UNL     1       2.772   6.097  25.362  0.00  0.00     0.066 C 
HETATM    2  C   UNL     1       1.531   6.719  25.637  0.00  0.00     0.035 C 
HETATM    3  C   UNL     1       3.798   6.250  26.319  0.00  0.00     0.083 C 
HETATM    4  C   UNL     1       3.651   7.068  27.452  0.00  0.00     0.069 C 
HETATM    5  C   UNL     1       2.466   7.797  27.564  0.00  0.00     0.065 A 
HETATM    6  C   UNL     1       1.416   7.677  26.662  0.00  0.00     0.020 A 
HETATM    7  N   UNL     1       2.045   8.719  28.481  0.00  0.00    -0.277 N 
HETATM    8  H   UNL     1       2.530   9.015  29.318  0.00  0.00     0.189 HD
HETATM    9  N   UNL     1       0.867   9.292  28.187  0.00  0.00    -0.178 NA
HETATM   10  C   UNL     1       0.469   8.690  27.051  0.00  0.00     0.071 A 
ENDROOT
BRANCH   1  11
HETATM   11  C   UNL     1       3.057   5.304  24.100  0.00  0.00     0.260 C 
HETATM   12  N   UNL     1       3.459   5.939  22.888  0.00  0.00    -0.318 N 
HETATM   13  C   UNL     1       3.598   7.399  22.822  0.00  0.00     0.159 C 
HETATM   14  O   UNL     1       3.005   4.077  24.257  0.00  0.00    -0.267 OA
BRANCH  12  15
HETATM   15  C   UNL     1       3.625   5.222  21.627  0.00  0.00     0.037 A 
HETATM   16  C   UNL     1       2.562   5.096  20.723  0.00  0.00     0.032 A 
HETATM   17  C   UNL     1       2.617   4.273  19.587  0.00  0.00     0.031 A 
HETATM   18  C   UNL     1       3.747   3.527  19.264  0.00  0.00     0.029 A 
HETATM   19  C   UNL     1       4.851   3.744  20.091  0.00  0.00     0.031 A 
HETATM   20  C   UNL     1       4.800   4.572  21.243  0.00  0.00     0.032 A 
BRANCH  18  21
HETATM   21  N   UNL     1       3.738   2.634  18.204  0.00  0.00    -0.390 N 
HETATM   22  C   UNL     1       4.904   1.844  17.834  0.00  0.00     0.149 C 
HETATM   23  C   UNL     1       2.572   2.465  17.339  0.00  0.00     0.149 C 
ENDBRANCH  18  21
ENDBRANCH  12  15
ENDBRANCH   1  11
BRANCH   3  24
HETATM   24  O   UNL     1       5.016   5.618  26.227  0.00  0.00    -0.360 OA
HETATM   25  H   UNL     1       4.939   4.750  26.688  0.00  0.00     0.217 HD
ENDBRANCH   3  24
BRANCH  10  26
HETATM   26  C   UNL     1      -0.812   9.159  26.394  0.00  0.00     0.100 C 
BRANCH  26  27
HETATM   27  C   UNL     1      -0.565  10.282  25.385  0.00  0.00    -0.052 A 
HETATM   28  C   UNL     1       0.671  10.927  25.243  0.00  0.00     0.007 A 
HETATM   29  C   UNL     1       0.859  11.930  24.289  0.00  0.00     0.001 A 
HETATM   30  C   UNL     1      -0.207  12.384  23.523  0.00  0.00     0.007 A 
HETATM   31  C   UNL     1      -1.490  11.872  23.734  0.00  0.00    -0.061 A 
HETATM   32  C   UNL     1      -1.652  10.795  24.630  0.00  0.00     0.014 A 
HETATM   33  C   UNL     1      -2.648  12.495  23.004  0.00  0.00     0.048 C 
ENDBRANCH  26  27
ENDBRANCH  10  26
TORSDOF 6
ENDMDL
