MODEL 1
REMARK VINA RESULT:   -10.766      0.000      0.000
REMARK INTER + INTRA:         -15.166
REMARK INTER:                 -13.335
REMARK INTRA:                  -1.832
REMARK UNBOUND:                -0.939
REMARK  6 active torsions:
REMARK  status: ('A' for Active; 'I' for Inactive)
REMARK    1  A    between atoms: C_6  and  C_7 
REMARK    2  A    between atoms: C_7  and  C_8 
REMARK    3  A    between atoms: C_8  and  C_9 
REMARK    4  A    between atoms: C_16  and  C_17 
REMARK    5  A    between atoms: C_24  and  N_25 
REMARK    6  A    between atoms: C_27  and  C_28 
REMARK       I    between atoms: C_28  and  N_30 
ROOT
HETATM    1  C   UNL     1      -0.439  14.941  22.917  0.00  0.00    -0.024 A 
HETATM    2  C   UNL     1      -0.893  13.611  23.097  0.00  0.00     0.028 A 
HETATM    3  C   UNL     1      -0.905  15.857  23.863  0.00  0.00     0.014 A 
HETATM    4  C   UNL     1      -1.750  15.470  24.912  0.00  0.00     0.033 A 
HETATM    5  C   UNL     1      -2.094  14.148  25.136  0.00  0.00     0.073 A 
HETATM    6  C   UNL     1      -1.651  13.176  24.240  0.00  0.00     0.028 A 
HETATM    7  N   UNL     1      -2.795  13.879  26.241  0.00  0.00    -0.218 NA
HETATM    8  C   UNL     1      -3.020  12.607  26.538  0.00  0.00     0.200 A 
HETATM    9  N   UNL     1      -2.663  11.587  25.779  0.00  0.00    -0.212 NA
HETATM   10  C   UNL     1      -1.995  11.862  24.637  0.00  0.00     0.140 A 
ENDROOT
BRANCH   1  11
HETATM   11  C   UNL     1       0.606  15.289  21.888  0.00  0.00    -0.017 A 
HETATM   12  C   UNL     1       0.587  16.420  21.010  0.00  0.00    -0.043 A 
HETATM   13  C   UNL     1       1.754  16.737  20.268  0.00  0.00     0.053 A 
HETATM   14  C   UNL     1       2.856  15.902  20.257  0.00  0.00     0.155 A 
HETATM   15  F   UNL     1       3.912  16.218  19.493  0.00  0.00    -0.203 F 
HETATM   16  C   UNL     1       2.857  14.758  21.020  0.00  0.00     0.155 A 
HETATM   17  F   UNL     1       3.911  13.935  21.010  0.00  0.00    -0.203 F 
HETATM   18  C   UNL     1       1.769  14.472  21.842  0.00  0.00     0.058 A 
BRANCH  12  19
HETATM   19  C   UNL     1      -0.624  17.333  20.834  0.00  0.00     0.047 C 
BRANCH  19  20
HETATM   20  C   UNL     1      -1.614  16.992  19.697  0.00  0.00     0.085 C 
BRANCH  20  21
HETATM   21  C   UNL     1      -2.765  16.185  20.167  0.00  0.00     0.134 A 
HETATM   22  N   UNL     1      -3.931  16.616  20.600  0.00  0.00    -0.148 NA
HETATM   23  N   UNL     1      -4.653  15.496  20.931  0.00  0.00     0.017 NA
HETATM   24  N   UNL     1      -3.954  14.393  20.696  0.00  0.00    -0.005 NA
HETATM   25  N   UNL     1      -2.778  14.820  20.221  0.00  0.00    -0.272 N 
HETATM   26  H   UNL     1      -2.067  14.142  19.978  0.00  0.00     0.185 HD
ENDBRANCH  20  21
ENDBRANCH  19  20
ENDBRANCH  12  19
ENDBRANCH   1  11
BRANCH  10  27
HETATM   27  C   UNL     1      -1.483  10.633  23.911  0.00  0.00     0.273 C 
HETATM   28  O   UNL     1      -2.117  10.207  22.942  0.00  0.00    -0.266 OA
HETATM   29  N   UNL     1      -0.287  10.011  24.280  0.00  0.00    -0.342 N 
HETATM   30  C   UNL     1       0.552  10.196  25.470  0.00  0.00     0.139 C 
HETATM   31  C   UNL     1       0.180   8.882  23.491  0.00  0.00     0.161 C 
HETATM   32  C   UNL     1       1.919   9.650  25.063  0.00  0.00     0.056 C 
HETATM   33  C   UNL     1       1.559   8.626  24.017  0.00  0.00    -0.056 C 
HETATM   34  C   UNL     1       2.821   9.083  26.126  0.00  0.00    -0.020 C 
HETATM   35  C   UNL     1       2.380   7.605  23.717  0.00  0.00    -0.018 C 
HETATM   36  C   UNL     1       3.666   7.395  24.476  0.00  0.00     0.054 C 
HETATM   37  C   UNL     1       3.656   8.065  25.832  0.00  0.00    -0.026 C 
ENDBRANCH  10  27
BRANCH   8  38
HETATM   38  N   UNL     1      -3.672  12.322  27.716  0.00  0.00    -0.271 NA
HETATM   39  H   UNL     1      -3.481  11.378  28.018  0.00  0.00     0.127 HD
HETATM   40  H   UNL     1      -3.564  13.067  28.387  0.00  0.00     0.127 HD
ENDBRANCH   8  38
TORSDOF 6
ENDMDL
MODEL 2
REMARK VINA RESULT:   -10.650      2.215      4.235
REMARK INTER + INTRA:         -15.013
REMARK INTER:                 -12.583
REMARK INTRA:                  -2.430
REMARK UNBOUND:                -0.939
REMARK  6 active torsions:
REMARK  status: ('A' for Active; 'I' for Inactive)
REMARK    1  A    between atoms: C_6  and  C_7 
REMARK    2  A    between atoms: C_7  and  C_8 
REMARK    3  A    between atoms: C_8  and  C_9 
REMARK    4  A    between atoms: C_16  and  C_17 
REMARK    5  A    between atoms: C_24  and  N_25 
REMARK    6  A    between atoms: C_27  and  C_28 
REMARK       I    between atoms: C_28  and  N_30 
ROOT
HETATM    1  C   UNL     1       0.473  15.070  21.644  0.00  0.00    -0.024 A 
HETATM    2  C   UNL     1      -0.297  13.881  21.683  0.00  0.00     0.028 A 
HETATM    3  C   UNL     1      -0.260  16.241  21.439  0.00  0.00     0.014 A 
HETATM    4  C   UNL     1      -1.654  16.224  21.294  0.00  0.00     0.033 A 
HETATM    5  C   UNL     1      -2.400  15.067  21.443  0.00  0.00     0.073 A 
HETATM    6  C   UNL     1      -1.735  13.862  21.667  0.00  0.00     0.028 A 
HETATM    7  N   UNL     1      -3.729  15.191  21.416  0.00  0.00    -0.218 NA
HETATM    8  C   UNL     1      -4.458  14.117  21.688  0.00  0.00     0.200 A 
HETATM    9  N   UNL     1      -3.962  12.914  21.913  0.00  0.00    -0.212 NA
HETATM   10  C   UNL     1      -2.618  12.779  21.893  0.00  0.00     0.140 A 
ENDROOT
BRANCH   1  11
HETATM   11  C   UNL     1       1.942  15.074  21.979  0.00  0.00    -0.017 A 
HETATM   12  C   UNL     1       2.531  14.638  23.210  0.00  0.00    -0.043 A 
HETATM   13  C   UNL     1       3.939  14.482  23.283  0.00  0.00     0.053 A 
HETATM   14  C   UNL     1       4.768  14.879  22.250  0.00  0.00     0.155 A 
HETATM   15  F   UNL     1       6.097  14.764  22.392  0.00  0.00    -0.203 F 
HETATM   16  C   UNL     1       4.226  15.391  21.095  0.00  0.00     0.155 A 
HETATM   17  F   UNL     1       5.016  15.791  20.092  0.00  0.00    -0.203 F 
HETATM   18  C   UNL     1       2.842  15.460  20.949  0.00  0.00     0.058 A 
BRANCH  12  19
HETATM   19  C   UNL     1       1.724  14.306  24.462  0.00  0.00     0.047 C 
BRANCH  19  20
HETATM   20  C   UNL     1       1.130  15.489  25.261  0.00  0.00     0.085 C 
BRANCH  20  21
HETATM   21  C   UNL     1      -0.290  15.274  25.626  0.00  0.00     0.134 A 
HETATM   22  N   UNL     1      -1.352  15.425  24.863  0.00  0.00    -0.148 NA
HETATM   23  N   UNL     1      -2.435  15.124  25.651  0.00  0.00     0.017 NA
HETATM   24  N   UNL     1      -2.052  14.780  26.874  0.00  0.00    -0.005 NA
HETATM   25  N   UNL     1      -0.716  14.874  26.860  0.00  0.00    -0.272 N 
HETATM   26  H   UNL     1      -0.197  14.666  27.703  0.00  0.00     0.185 HD
ENDBRANCH  20  21
ENDBRANCH  19  20
ENDBRANCH  12  19
ENDBRANCH   1  11
BRANCH  10  27
HETATM   27  C   UNL     1      -2.130  11.408  22.319  0.00  0.00     0.273 C 
HETATM   28  O   UNL     1      -1.807  10.595  21.449  0.00  0.00    -0.266 OA
HETATM   29  N   UNL     1      -1.985  11.070  23.668  0.00  0.00    -0.342 N 
HETATM   30  C   UNL     1      -2.448  11.762  24.876  0.00  0.00     0.139 C 
HETATM   31  C   UNL     1      -1.441   9.762  24.000  0.00  0.00     0.161 C 
HETATM   32  C   UNL     1      -1.571  11.207  25.995  0.00  0.00     0.056 C 
HETATM   33  C   UNL     1      -1.220   9.835  25.480  0.00  0.00    -0.056 C 
HETATM   34  C   UNL     1      -2.120  11.164  27.396  0.00  0.00    -0.020 C 
HETATM   35  C   UNL     1      -0.852   8.843  26.308  0.00  0.00    -0.018 C 
HETATM   36  C   UNL     1      -0.852   9.039  27.804  0.00  0.00     0.054 C 
HETATM   37  C   UNL     1      -1.748  10.178  28.238  0.00  0.00    -0.026 C 
ENDBRANCH  10  27
BRANCH   8  38
HETATM   38  N   UNL     1      -5.826  14.258  21.740  0.00  0.00    -0.271 NA
HETATM   39  H   UNL     1      -6.125  15.094  21.259  0.00  0.00     0.127 HD
HETATM   40  H   UNL     1      -6.294  13.391  21.522  0.00  0.00     0.127 HD
ENDBRANCH   8  38
TORSDOF 6
ENDMDL
MODEL 3
REMARK VINA RESULT:   -10.501      2.358      3.110
REMARK INTER + INTRA:         -14.816
REMARK INTER:                 -13.818
REMARK INTRA:                  -0.998
REMARK UNBOUND:                -0.939
REMARK  6 active torsions:
REMARK  status: ('A' for Active; 'I' for Inactive)
REMARK    1  A    between atoms: C_6  and  C_7 
REMARK    2  A    between atoms: C_7  and  C_8 
REMARK    3  A    between atoms: C_8  and  C_9 
REMARK    4  A    between atoms: C_16  and  C_17 
REMARK    5  A    between atoms: C_24  and  N_25 
REMARK    6  A    between atoms: C_27  and  C_28 
REMARK       I    between atoms: C_28  and  N_30 
ROOT
HETATM    1  C   UNL     1      -2.801  14.561  22.641  0.00  0.00    -0.024 A 
HETATM    2  C   UNL     1      -2.086  13.495  23.242  0.00  0.00     0.028 A 
HETATM    3  C   UNL     1      -4.085  14.768  23.148  0.00  0.00     0.014 A 
HETATM    4  C   UNL     1      -4.609  13.979  24.180  0.00  0.00     0.033 A 
HETATM    5  C   UNL     1      -3.856  13.015  24.829  0.00  0.00     0.073 A 
HETATM    6  C   UNL     1      -2.558  12.764  24.387  0.00  0.00     0.028 A 
HETATM    7  N   UNL     1      -4.413  12.415  25.885  0.00  0.00    -0.218 NA
HETATM    8  C   UNL     1      -3.660  11.586  26.596  0.00  0.00     0.200 A 
HETATM    9  N   UNL     1      -2.420  11.254  26.290  0.00  0.00    -0.212 NA
HETATM   10  C   UNL     1      -1.872  11.825  25.193  0.00  0.00     0.140 A 
ENDROOT
BRANCH   1  11
HETATM   11  C   UNL     1      -2.147  15.500  21.661  0.00  0.00    -0.017 A 
HETATM   12  C   UNL     1      -2.735  16.014  20.460  0.00  0.00    -0.043 A 
HETATM   13  C   UNL     1      -2.084  17.069  19.770  0.00  0.00     0.053 A 
HETATM   14  C   UNL     1      -0.828  17.512  20.142  0.00  0.00     0.155 A 
HETATM   15  F   UNL     1      -0.230  18.473  19.421  0.00  0.00    -0.203 F 
HETATM   16  C   UNL     1      -0.204  16.964  21.237  0.00  0.00     0.155 A 
HETATM   17  F   UNL     1       1.016  17.375  21.601  0.00  0.00    -0.203 F 
HETATM   18  C   UNL     1      -0.860  16.000  21.999  0.00  0.00     0.058 A 
BRANCH  12  19
HETATM   19  C   UNL     1      -4.049  15.502  19.876  0.00  0.00     0.047 C 
BRANCH  19  20
HETATM   20  C   UNL     1      -4.168  13.984  19.611  0.00  0.00     0.085 C 
BRANCH  20  21
HETATM   21  C   UNL     1      -5.247  13.657  18.649  0.00  0.00     0.134 A 
HETATM   22  N   UNL     1      -5.546  14.279  17.528  0.00  0.00    -0.148 NA
HETATM   23  N   UNL     1      -6.625  13.614  16.999  0.00  0.00     0.017 NA
HETATM   24  N   UNL     1      -6.980  12.594  17.770  0.00  0.00    -0.005 NA
HETATM   25  N   UNL     1      -6.123  12.619  18.798  0.00  0.00    -0.272 N 
HETATM   26  H   UNL     1      -6.210  11.928  19.531  0.00  0.00     0.185 HD
ENDBRANCH  20  21
ENDBRANCH  19  20
ENDBRANCH  12  19
ENDBRANCH   1  11
BRANCH  10  27
HETATM   27  C   UNL     1      -0.400  11.516  25.008  0.00  0.00     0.273 C 
HETATM   28  O   UNL     1       0.419  12.432  25.120  0.00  0.00    -0.266 OA
HETATM   29  N   UNL     1       0.050  10.214  24.770  0.00  0.00    -0.342 N 
HETATM   30  C   UNL     1      -0.697   8.999  24.425  0.00  0.00     0.139 C 
HETATM   31  C   UNL     1       1.483   9.981  24.677  0.00  0.00     0.161 C 
HETATM   32  C   UNL     1       0.240   7.853  24.799  0.00  0.00     0.056 C 
HETATM   33  C   UNL     1       1.599   8.487  24.651  0.00  0.00    -0.056 C 
HETATM   34  C   UNL     1       0.136   6.553  24.047  0.00  0.00    -0.020 C 
HETATM   35  C   UNL     1       2.703   7.750  24.441  0.00  0.00    -0.018 C 
HETATM   36  C   UNL     1       2.616   6.255  24.263  0.00  0.00     0.054 C 
HETATM   37  C   UNL     1       1.236   5.801  23.841  0.00  0.00    -0.026 C 
ENDBRANCH  10  27
BRANCH   8  38
HETATM   38  N   UNL     1      -4.204  11.028  27.729  0.00  0.00    -0.271 NA
HETATM   39  H   UNL     1      -5.173  10.784  27.587  0.00  0.00     0.127 HD
HETATM   40  H   UNL     1      -3.592  10.331  28.127  0.00  0.00     0.127 HD
ENDBRANCH   8  38
TORSDOF 6
ENDMDL
MODEL 4
REMARK VINA RESULT:   -10.395      1.979      2.311
REMARK INTER + INTRA:         -14.676
REMARK INTER:                 -12.710
REMARK INTRA:                  -1.966
REMARK UNBOUND:                -0.939
REMARK  6 active torsions:
REMARK  status: ('A' for Active; 'I' for Inactive)
REMARK    1  A    between atoms: C_6  and  C_7 
REMARK    2  A    between atoms: C_7  and  C_8 
REMARK    3  A    between atoms: C_8  and  C_9 
REMARK    4  A    between atoms: C_16  and  C_17 
REMARK    5  A    between atoms: C_24  and  N_25 
REMARK    6  A    between atoms: C_27  and  C_28 
REMARK       I    between atoms: C_28  and  N_30 
ROOT
HETATM    1  C   UNL     1       1.095  14.374  23.855  0.00  0.00    -0.024 A 
HETATM    2  C   UNL     1       0.234  13.258  24.006  0.00  0.00     0.028 A 
HETATM    3  C   UNL     1       0.847  15.432  24.731  0.00  0.00     0.014 A 
HETATM    4  C   UNL     1      -0.174  15.375  25.689  0.00  0.00     0.033 A 
HETATM    5  C   UNL     1      -0.933  14.236  25.895  0.00  0.00     0.073 A 
HETATM    6  C   UNL     1      -0.728  13.132  25.068  0.00  0.00     0.028 A 
HETATM    7  N   UNL     1      -1.786  14.249  26.923  0.00  0.00    -0.218 NA
HETATM    8  C   UNL     1      -2.423  13.123  27.214  0.00  0.00     0.200 A 
HETATM    9  N   UNL     1      -2.329  12.007  26.514  0.00  0.00    -0.212 NA
HETATM   10  C   UNL     1      -1.500  12.009  25.446  0.00  0.00     0.140 A 
ENDROOT
BRANCH   1  11
HETATM   11  C   UNL     1       2.291  14.333  22.939  0.00  0.00    -0.017 A 
HETATM   12  C   UNL     1       2.261  14.224  21.512  0.00  0.00    -0.043 A 
HETATM   13  C   UNL     1       3.457  14.438  20.779  0.00  0.00     0.053 A 
HETATM   14  C   UNL     1       4.676  14.602  21.411  0.00  0.00     0.155 A 
HETATM   15  F   UNL     1       5.786  14.743  20.670  0.00  0.00    -0.203 F 
HETATM   16  C   UNL     1       4.740  14.614  22.784  0.00  0.00     0.155 A 
HETATM   17  F   UNL     1       5.914  14.760  23.409  0.00  0.00    -0.203 F 
HETATM   18  C   UNL     1       3.570  14.513  23.534  0.00  0.00     0.058 A 
BRANCH  12  19
HETATM   19  C   UNL     1       0.999  13.905  20.715  0.00  0.00     0.047 C 
BRANCH  19  20
HETATM   20  C   UNL     1       0.522  12.435  20.694  0.00  0.00     0.085 C 
BRANCH  20  21
HETATM   21  C   UNL     1      -0.941  12.308  20.893  0.00  0.00     0.134 A 
HETATM   22  N   UNL     1      -1.853  13.252  20.804  0.00  0.00    -0.148 NA
HETATM   23  N   UNL     1      -3.055  12.650  21.087  0.00  0.00     0.017 NA
HETATM   24  N   UNL     1      -2.892  11.357  21.333  0.00  0.00    -0.005 NA
HETATM   25  N   UNL     1      -1.576  11.142  21.214  0.00  0.00    -0.272 N 
HETATM   26  H   UNL     1      -1.210  10.212  21.371  0.00  0.00     0.185 HD
ENDBRANCH  20  21
ENDBRANCH  19  20
ENDBRANCH  12  19
ENDBRANCH   1  11
BRANCH  10  27
HETATM   27  C   UNL     1      -1.328  10.649  24.799  0.00  0.00     0.273 C 
HETATM   28  O   UNL     1      -2.254  10.187  24.126  0.00  0.00    -0.266 OA
HETATM   29  N   UNL     1      -0.128   9.937  24.901  0.00  0.00    -0.342 N 
HETATM   30  C   UNL     1       1.040  10.163  25.759  0.00  0.00     0.139 C 
HETATM   31  C   UNL     1      -0.010   8.673  24.191  0.00  0.00     0.161 C 
HETATM   32  C   UNL     1       2.175   9.412  25.067  0.00  0.00     0.056 C 
HETATM   33  C   UNL     1       1.439   8.319  24.335  0.00  0.00    -0.056 C 
HETATM   34  C   UNL     1       3.306   8.874  25.901  0.00  0.00    -0.020 C 
HETATM   35  C   UNL     1       2.049   7.179  23.971  0.00  0.00    -0.018 C 
HETATM   36  C   UNL     1       3.483   6.909  24.354  0.00  0.00     0.054 C 
HETATM   37  C   UNL     1       3.932   7.735  25.539  0.00  0.00    -0.026 C 
ENDBRANCH  10  27
BRANCH   8  38
HETATM   38  N   UNL     1      -3.243  13.109  28.319  0.00  0.00    -0.271 NA
HETATM   39  H   UNL     1      -3.734  13.985  28.419  0.00  0.00     0.127 HD
HETATM   40  H   UNL     1      -3.778  12.255  28.371  0.00  0.00     0.127 HD
ENDBRANCH   8  38
TORSDOF 6
ENDMDL
MODEL 5
REMARK VINA RESULT:   -10.350      2.230      3.382
REMARK INTER + INTRA:         -14.617
REMARK INTER:                 -12.445
REMARK INTRA:                  -2.172
REMARK UNBOUND:                -0.939
REMARK  6 active torsions:
REMARK  status: ('A' for Active; 'I' for Inactive)
REMARK    1  A    between atoms: C_6  and  C_7 
REMARK    2  A    between atoms: C_7  and  C_8 
REMARK    3  A    between atoms: C_8  and  C_9 
REMARK    4  A    between atoms: C_16  and  C_17 
REMARK    5  A    between atoms: C_24  and  N_25 
REMARK    6  A    between atoms: C_27  and  C_28 
REMARK       I    between atoms: C_28  and  N_30 
ROOT
HETATM    1  C   UNL     1       0.120  13.476  22.147  0.00  0.00    -0.024 A 
HETATM    2  C   UNL     1      -0.118  12.436  23.079  0.00  0.00     0.028 A 
HETATM    3  C   UNL     1      -0.995  13.864  21.401  0.00  0.00     0.014 A 
HETATM    4  C   UNL     1      -2.250  13.267  21.581  0.00  0.00     0.033 A 
HETATM    5  C   UNL     1      -2.488  12.329  22.571  0.00  0.00     0.073 A 
HETATM    6  C   UNL     1      -1.424  11.906  23.366  0.00  0.00     0.028 A 
HETATM    7  N   UNL     1      -3.750  11.926  22.738  0.00  0.00    -0.218 NA
HETATM    8  C   UNL     1      -4.016  11.130  23.765  0.00  0.00     0.200 A 
HETATM    9  N   UNL     1      -3.108  10.649  24.593  0.00  0.00    -0.212 NA
HETATM   10  C   UNL     1      -1.823  11.020  24.395  0.00  0.00     0.140 A 
ENDROOT
BRANCH   1  11
HETATM   11  C   UNL     1       1.431  14.216  22.102  0.00  0.00    -0.017 A 
HETATM   12  C   UNL     1       2.284  14.496  23.219  0.00  0.00    -0.043 A 
HETATM   13  C   UNL     1       3.592  14.991  22.980  0.00  0.00     0.053 A 
HETATM   14  C   UNL     1       4.012  15.349  21.712  0.00  0.00     0.155 A 
HETATM   15  F   UNL     1       5.239  15.867  21.549  0.00  0.00    -0.203 F 
HETATM   16  C   UNL     1       3.172  15.178  20.638  0.00  0.00     0.155 A 
HETATM   17  F   UNL     1       3.560  15.532  19.408  0.00  0.00    -0.203 F 
HETATM   18  C   UNL     1       1.919  14.597  20.822  0.00  0.00     0.058 A 
BRANCH  12  19
HETATM   19  C   UNL     1       1.874  14.273  24.672  0.00  0.00     0.047 C 
BRANCH  19  20
HETATM   20  C   UNL     1       1.033  15.376  25.352  0.00  0.00     0.085 C 
BRANCH  20  21
HETATM   21  C   UNL     1      -0.411  15.045  25.398  0.00  0.00     0.134 A 
HETATM   22  N   UNL     1      -1.373  15.520  24.635  0.00  0.00    -0.148 NA
HETATM   23  N   UNL     1      -2.533  14.926  25.069  0.00  0.00     0.017 NA
HETATM   24  N   UNL     1      -2.293  14.091  26.072  0.00  0.00    -0.005 NA
HETATM   25  N   UNL     1      -0.972  14.164  26.278  0.00  0.00    -0.272 N 
HETATM   26  H   UNL     1      -0.555  13.612  27.016  0.00  0.00     0.185 HD
ENDBRANCH  20  21
ENDBRANCH  19  20
ENDBRANCH  12  19
ENDBRANCH   1  11
BRANCH  10  27
HETATM   27  C   UNL     1      -0.873  10.556  25.482  0.00  0.00     0.273 C 
HETATM   28  O   UNL     1      -1.074  10.921  26.643  0.00  0.00    -0.266 OA
HETATM   29  N   UNL     1       0.184   9.683  25.205  0.00  0.00    -0.342 N 
HETATM   30  C   UNL     1       0.743   9.245  23.921  0.00  0.00     0.139 C 
HETATM   31  C   UNL     1       1.009   9.221  26.311  0.00  0.00     0.161 C 
HETATM   32  C   UNL     1       1.489   7.954  24.250  0.00  0.00     0.056 C 
HETATM   33  C   UNL     1       1.866   8.157  25.695  0.00  0.00    -0.056 C 
HETATM   34  C   UNL     1       2.673   7.564  23.405  0.00  0.00    -0.020 C 
HETATM   35  C   UNL     1       2.895   7.500  26.256  0.00  0.00    -0.018 C 
HETATM   36  C   UNL     1       3.772   6.587  25.436  0.00  0.00     0.054 C 
HETATM   37  C   UNL     1       3.706   6.895  23.956  0.00  0.00    -0.026 C 
ENDBRANCH  10  27
BRANCH   8  38
HETATM   38  N   UNL     1      -5.327  10.775  23.988  0.00  0.00    -0.271 NA
HETATM   39  H   UNL     1      -5.387   9.923  24.525  0.00  0.00     0.127 HD
HETATM   40  H   UNL     1      -5.877  11.566  24.286  0.00  0.00     0.127 HD
ENDBRANCH   8  38
TORSDOF 6
ENDMDL
MODEL 6
REMARK VINA RESULT:   -10.217      2.334      3.760
REMARK INTER + INTRA:         -14.441
REMARK INTER:                 -12.143
REMARK INTRA:                  -2.298
REMARK UNBOUND:                -0.939
REMARK  6 active torsions:
REMARK  status: ('A' for Active; 'I' for Inactive)
REMARK    1  A    between atoms: C_6  and  C_7 
REMARK    2  A    between atoms: C_7  and  C_8 
REMARK    3  A    between atoms: C_8  and  C_9 
REMARK    4  A    between atoms: C_16  and  C_17 
REMARK    5  A    between atoms: C_24  and  N_25 
REMARK    6  A    between atoms: C_27  and  C_28 
REMARK       I    between atoms: C_28  and  N_30 
ROOT
HETATM    1  C   UNL     1      -0.046  13.909  22.143  0.00  0.00    -0.024 A 
HETATM    2  C   UNL     1      -0.240  12.568  22.558  0.00  0.00     0.028 A 
HETATM    3  C   UNL     1      -1.219  14.642  21.951  0.00  0.00     0.014 A 
HETATM    4  C   UNL     1      -2.485  14.081  22.168  0.00  0.00     0.033 A 
HETATM    5  C   UNL     1      -2.651  12.805  22.678  0.00  0.00     0.073 A 
HETATM    6  C   UNL     1      -1.523  12.020  22.910  0.00  0.00     0.028 A 
HETATM    7  N   UNL     1      -3.897  12.423  22.969  0.00  0.00    -0.218 NA
HETATM    8  C   UNL     1      -4.062  11.257  23.580  0.00  0.00     0.200 A 
HETATM    9  N   UNL     1      -3.085  10.412  23.854  0.00  0.00    -0.212 NA
HETATM   10  C   UNL     1      -1.828  10.779  23.516  0.00  0.00     0.140 A 
ENDROOT
BRANCH   1  11
HETATM   11  C   UNL     1       1.325  14.532  22.091  0.00  0.00    -0.017 A 
HETATM   12  C   UNL     1       2.229  14.683  23.191  0.00  0.00    -0.043 A 
HETATM   13  C   UNL     1       3.569  15.071  22.934  0.00  0.00     0.053 A 
HETATM   14  C   UNL     1       3.985  15.451  21.671  0.00  0.00     0.155 A 
HETATM   15  F   UNL     1       5.249  15.865  21.493  0.00  0.00    -0.203 F 
HETATM   16  C   UNL     1       3.104  15.405  20.617  0.00  0.00     0.155 A 
HETATM   17  F   UNL     1       3.490  15.781  19.392  0.00  0.00    -0.203 F 
HETATM   18  C   UNL     1       1.810  14.928  20.814  0.00  0.00     0.058 A 
BRANCH  12  19
HETATM   19  C   UNL     1       1.841  14.428  24.645  0.00  0.00     0.047 C 
BRANCH  19  20
HETATM   20  C   UNL     1       0.876  15.435  25.312  0.00  0.00     0.085 C 
BRANCH  20  21
HETATM   21  C   UNL     1      -0.456  14.849  25.591  0.00  0.00     0.134 A 
HETATM   22  N   UNL     1      -1.631  15.438  25.509  0.00  0.00    -0.148 NA
HETATM   23  N   UNL     1      -2.557  14.494  25.879  0.00  0.00     0.017 NA
HETATM   24  N   UNL     1      -1.970  13.340  26.172  0.00  0.00    -0.005 NA
HETATM   25  N   UNL     1      -0.662  13.560  25.994  0.00  0.00    -0.272 N 
HETATM   26  H   UNL     1      -0.005  12.811  26.172  0.00  0.00     0.185 HD
ENDBRANCH  20  21
ENDBRANCH  19  20
ENDBRANCH  12  19
ENDBRANCH   1  11
BRANCH  10  27
HETATM   27  C   UNL     1      -0.755   9.829  24.011  0.00  0.00     0.273 C 
HETATM   28  O   UNL     1       0.022   9.331  23.192  0.00  0.00    -0.266 OA
HETATM   29  N   UNL     1      -0.594   9.553  25.372  0.00  0.00    -0.342 N 
HETATM   30  C   UNL     1      -1.464   9.860  26.513  0.00  0.00     0.139 C 
HETATM   31  C   UNL     1       0.505   8.691  25.779  0.00  0.00     0.161 C 
HETATM   32  C   UNL     1      -0.543   9.781  27.729  0.00  0.00     0.056 C 
HETATM   33  C   UNL     1       0.507   8.801  27.274  0.00  0.00    -0.056 C 
HETATM   34  C   UNL     1      -1.131   9.403  29.062  0.00  0.00    -0.020 C 
HETATM   35  C   UNL     1       1.245   8.099  28.150  0.00  0.00    -0.018 C 
HETATM   36  C   UNL     1       0.995   8.203  29.634  0.00  0.00     0.054 C 
HETATM   37  C   UNL     1      -0.395   8.708  29.953  0.00  0.00    -0.026 C 
ENDBRANCH  10  27
BRANCH   8  38
HETATM   38  N   UNL     1      -5.335  10.894  23.953  0.00  0.00    -0.271 NA
HETATM   39  H   UNL     1      -5.481   9.902  23.834  0.00  0.00     0.127 HD
HETATM   40  H   UNL     1      -5.594  11.310  24.834  0.00  0.00     0.127 HD
ENDBRANCH   8  38
TORSDOF 6
ENDMDL
MODEL 7
REMARK VINA RESULT:   -10.197      2.879      7.019
REMARK INTER + INTRA:         -14.414
REMARK INTER:                 -12.239
REMARK INTRA:                  -2.175
REMARK UNBOUND:                -0.939
REMARK  6 active torsions:
REMARK  status: ('A' for Active; 'I' for Inactive)
REMARK    1  A    between atoms: C_6  and  C_7 
REMARK    2  A    between atoms: C_7  and  C_8 
REMARK    3  A    between atoms: C_8  and  C_9 
REMARK    4  A    between atoms: C_16  and  C_17 
REMARK    5  A    between atoms: C_24  and  N_25 
REMARK    6  A    between atoms: C_27  and  C_28 
REMARK       I    between atoms: C_28  and  N_30 
ROOT
HETATM    1  C   UNL     1      -1.374  10.544  24.539  0.00  0.00    -0.024 A 
HETATM    2  C   UNL     1      -1.328  11.960  24.542  0.00  0.00     0.028 A 
HETATM    3  C   UNL     1      -2.551   9.994  24.026  0.00  0.00     0.014 A 
HETATM    4  C   UNL     1      -3.594  10.797  23.545  0.00  0.00     0.033 A 
HETATM    5  C   UNL     1      -3.486  12.174  23.455  0.00  0.00     0.073 A 
HETATM    6  C   UNL     1      -2.332  12.792  23.934  0.00  0.00     0.028 A 
HETATM    7  N   UNL     1      -4.488  12.826  22.859  0.00  0.00    -0.218 NA
HETATM    8  C   UNL     1      -4.342  14.127  22.647  0.00  0.00     0.200 A 
HETATM    9  N   UNL     1      -3.306  14.839  23.050  0.00  0.00    -0.212 NA
HETATM   10  C   UNL     1      -2.313  14.187  23.696  0.00  0.00     0.140 A 
ENDROOT
BRANCH   1  11
HETATM   11  C   UNL     1      -0.170   9.711  24.896  0.00  0.00    -0.017 A 
HETATM   12  C   UNL     1       0.210   9.294  26.212  0.00  0.00    -0.043 A 
HETATM   13  C   UNL     1       1.232   8.319  26.358  0.00  0.00     0.053 A 
HETATM   14  C   UNL     1       1.968   7.873  25.277  0.00  0.00     0.155 A 
HETATM   15  F   UNL     1       2.962   6.994  25.477  0.00  0.00    -0.203 F 
HETATM   16  C   UNL     1       1.681   8.335  24.014  0.00  0.00     0.155 A 
HETATM   17  F   UNL     1       2.394   7.920  22.961  0.00  0.00    -0.203 F 
HETATM   18  C   UNL     1       0.616   9.211  23.822  0.00  0.00     0.058 A 
BRANCH  12  19
HETATM   19  C   UNL     1      -0.437   9.826  27.488  0.00  0.00     0.047 C 
BRANCH  19  20
HETATM   20  C   UNL     1      -1.905   9.428  27.761  0.00  0.00     0.085 C 
BRANCH  20  21
HETATM   21  C   UNL     1      -2.833  10.581  27.680  0.00  0.00     0.134 A 
HETATM   22  N   UNL     1      -4.134  10.559  27.479  0.00  0.00    -0.148 NA
HETATM   23  N   UNL     1      -4.541  11.870  27.471  0.00  0.00     0.017 NA
HETATM   24  N   UNL     1      -3.516  12.688  27.677  0.00  0.00    -0.005 NA
HETATM   25  N   UNL     1      -2.452  11.887  27.807  0.00  0.00    -0.272 N 
HETATM   26  H   UNL     1      -1.540  12.297  27.962  0.00  0.00     0.185 HD
ENDBRANCH  20  21
ENDBRANCH  19  20
ENDBRANCH  12  19
ENDBRANCH   1  11
BRANCH  10  27
HETATM   27  C   UNL     1      -1.095  15.043  23.979  0.00  0.00     0.273 C 
HETATM   28  O   UNL     1      -1.135  15.843  24.918  0.00  0.00    -0.266 OA
HETATM   29  N   UNL     1       0.084  14.906  23.239  0.00  0.00    -0.342 N 
HETATM   30  C   UNL     1       0.342  14.179  21.991  0.00  0.00     0.139 C 
HETATM   31  C   UNL     1       1.236  15.710  23.616  0.00  0.00     0.161 C 
HETATM   32  C   UNL     1       1.856  13.977  21.972  0.00  0.00     0.056 C 
HETATM   33  C   UNL     1       2.347  15.150  22.780  0.00  0.00    -0.056 C 
HETATM   34  C   UNL     1       2.558  13.868  20.645  0.00  0.00    -0.020 C 
HETATM   35  C   UNL     1       3.599  15.622  22.650  0.00  0.00    -0.018 C 
HETATM   36  C   UNL     1       4.543  15.046  21.625  0.00  0.00     0.054 C 
HETATM   37  C   UNL     1       3.818  14.330  20.507  0.00  0.00    -0.026 C 
ENDBRANCH  10  27
BRANCH   8  38
HETATM   38  N   UNL     1      -5.336  14.788  21.963  0.00  0.00    -0.271 NA
HETATM   39  H   UNL     1      -4.980  15.201  21.113  0.00  0.00     0.127 HD
HETATM   40  H   UNL     1      -6.176  14.234  21.907  0.00  0.00     0.127 HD
ENDBRANCH   8  38
TORSDOF 6
ENDMDL
MODEL 8
REMARK VINA RESULT:   -10.179      3.874      7.239
REMARK INTER + INTRA:         -14.390
REMARK INTER:                 -12.212
REMARK INTRA:                  -2.178
REMARK UNBOUND:                -0.939
REMARK  6 active torsions:
REMARK  status: ('A' for Active; 'I' for Inactive)
REMARK    1  A    between atoms: C_6  and  C_7 
REMARK    2  A    between atoms: C_7  and  C_8 
REMARK    3  A    between atoms: C_8  and  C_9 
REMARK    4  A    between atoms: C_16  and  C_17 
REMARK    5  A    between atoms: C_24  and  N_25 
REMARK    6  A    between atoms: C_27  and  C_28 
REMARK       I    between atoms: C_28  and  N_30 
ROOT
HETATM    1  C   UNL     1      -2.099  10.596  26.855  0.00  0.00    -0.024 A 
HETATM    2  C   UNL     1      -1.691  11.919  26.551  0.00  0.00     0.028 A 
HETATM    3  C   UNL     1      -3.370  10.250  26.390  0.00  0.00     0.014 A 
HETATM    4  C   UNL     1      -4.164  11.152  25.668  0.00  0.00     0.033 A 
HETATM    5  C   UNL     1      -3.704  12.401  25.286  0.00  0.00     0.073 A 
HETATM    6  C   UNL     1      -2.438  12.808  25.701  0.00  0.00     0.028 A 
HETATM    7  N   UNL     1      -4.496  13.123  24.488  0.00  0.00    -0.218 NA
HETATM    8  C   UNL     1      -4.017  14.263  24.007  0.00  0.00     0.200 A 
HETATM    9  N   UNL     1      -2.839  14.770  24.320  0.00  0.00    -0.212 NA
HETATM   10  C   UNL     1      -2.058  14.061  25.165  0.00  0.00     0.140 A 
ENDROOT
BRANCH   1  11
HETATM   11  C   UNL     1      -1.156   9.599  27.475  0.00  0.00    -0.017 A 
HETATM   12  C   UNL     1      -0.261   8.729  26.772  0.00  0.00    -0.043 A 
HETATM   13  C   UNL     1       0.728   8.020  27.502  0.00  0.00     0.053 A 
HETATM   14  C   UNL     1       0.757   8.032  28.884  0.00  0.00     0.155 A 
HETATM   15  F   UNL     1       1.677   7.299  29.528  0.00  0.00    -0.203 F 
HETATM   16  C   UNL     1      -0.156   8.787  29.583  0.00  0.00     0.155 A 
HETATM   17  F   UNL     1      -0.147   8.798  30.920  0.00  0.00    -0.203 F 
HETATM   18  C   UNL     1      -1.074   9.577  28.894  0.00  0.00     0.058 A 
BRANCH  12  19
HETATM   19  C   UNL     1      -0.293   8.527  25.259  0.00  0.00     0.047 C 
BRANCH  19  20
HETATM   20  C   UNL     1       0.454   9.561  24.386  0.00  0.00     0.085 C 
BRANCH  20  21
HETATM   21  C   UNL     1      -0.411  10.156  23.341  0.00  0.00     0.134 A 
HETATM   22  N   UNL     1      -0.038  10.783  22.245  0.00  0.00    -0.148 NA
HETATM   23  N   UNL     1      -1.196  11.160  21.609  0.00  0.00     0.017 NA
HETATM   24  N   UNL     1      -2.263  10.764  22.290  0.00  0.00    -0.005 NA
HETATM   25  N   UNL     1      -1.777  10.139  23.369  0.00  0.00    -0.272 N 
HETATM   26  H   UNL     1      -2.418   9.756  24.051  0.00  0.00     0.185 HD
ENDBRANCH  20  21
ENDBRANCH  19  20
ENDBRANCH  12  19
ENDBRANCH   1  11
BRANCH  10  27
HETATM   27  C   UNL     1      -0.665  14.633  25.342  0.00  0.00     0.273 C 
HETATM   28  O   UNL     1      -0.370  15.162  26.417  0.00  0.00    -0.266 OA
HETATM   29  N   UNL     1       0.304  14.523  24.339  0.00  0.00    -0.342 N 
HETATM   30  C   UNL     1       0.176  14.112  22.937  0.00  0.00     0.139 C 
HETATM   31  C   UNL     1       1.641  15.028  24.609  0.00  0.00     0.161 C 
HETATM   32  C   UNL     1       1.590  13.706  22.527  0.00  0.00     0.056 C 
HETATM   33  C   UNL     1       2.445  14.549  23.439  0.00  0.00    -0.056 C 
HETATM   34  C   UNL     1       1.996  13.842  21.084  0.00  0.00    -0.020 C 
HETATM   35  C   UNL     1       3.717  14.853  23.132  0.00  0.00    -0.018 C 
HETATM   36  C   UNL     1       4.321  14.431  21.815  0.00  0.00     0.054 C 
HETATM   37  C   UNL     1       3.273  14.138  20.765  0.00  0.00    -0.026 C 
ENDBRANCH  10  27
BRANCH   8  38
HETATM   38  N   UNL     1      -4.797  14.971  23.123  0.00  0.00    -0.271 NA
HETATM   39  H   UNL     1      -5.601  14.434  22.834  0.00  0.00     0.127 HD
HETATM   40  H   UNL     1      -4.945  15.918  23.439  0.00  0.00     0.127 HD
ENDBRANCH   8  38
TORSDOF 6
ENDMDL
MODEL 9
REMARK VINA RESULT:   -10.032      3.059      4.080
REMARK INTER + INTRA:         -14.196
REMARK INTER:                 -13.258
REMARK INTRA:                  -0.939
REMARK UNBOUND:                -0.939
REMARK  6 active torsions:
REMARK  status: ('A' for Active; 'I' for Inactive)
REMARK    1  A    between atoms: C_6  and  C_7 
REMARK    2  A    between atoms: C_7  and  C_8 
REMARK    3  A    between atoms: C_8  and  C_9 
REMARK    4  A    between atoms: C_16  and  C_17 
REMARK    5  A    between atoms: C_24  and  N_25 
REMARK    6  A    between atoms: C_27  and  C_28 
REMARK       I    between atoms: C_28  and  N_30 
ROOT
HETATM    1  C   UNL     1      -2.820  14.602  22.650  0.00  0.00    -0.024 A 
HETATM    2  C   UNL     1      -2.098  13.536  23.243  0.00  0.00     0.028 A 
HETATM    3  C   UNL     1      -4.113  14.785  23.145  0.00  0.00     0.014 A 
HETATM    4  C   UNL     1      -4.638  13.973  24.158  0.00  0.00     0.033 A 
HETATM    5  C   UNL     1      -3.882  13.008  24.801  0.00  0.00     0.073 A 
HETATM    6  C   UNL     1      -2.575  12.781  24.371  0.00  0.00     0.028 A 
HETATM    7  N   UNL     1      -4.443  12.386  25.841  0.00  0.00    -0.218 NA
HETATM    8  C   UNL     1      -3.689  11.555  26.548  0.00  0.00     0.200 A 
HETATM    9  N   UNL     1      -2.440  11.243  26.251  0.00  0.00    -0.212 NA
HETATM   10  C   UNL     1      -1.887  11.838  25.171  0.00  0.00     0.140 A 
ENDROOT
BRANCH   1  11
HETATM   11  C   UNL     1      -2.167  15.564  21.692  0.00  0.00    -0.017 A 
HETATM   12  C   UNL     1      -0.789  15.956  21.693  0.00  0.00    -0.043 A 
HETATM   13  C   UNL     1      -0.278  16.683  20.587  0.00  0.00     0.053 A 
HETATM   14  C   UNL     1      -1.105  17.149  19.581  0.00  0.00     0.155 A 
HETATM   15  F   UNL     1      -0.580  17.881  18.587  0.00  0.00    -0.203 F 
HETATM   16  C   UNL     1      -2.450  16.865  19.612  0.00  0.00     0.155 A 
HETATM   17  F   UNL     1      -3.263  17.320  18.652  0.00  0.00    -0.203 F 
HETATM   18  C   UNL     1      -2.966  16.065  20.628  0.00  0.00     0.058 A 
BRANCH  12  19
HETATM   19  C   UNL     1       0.185  15.619  22.819  0.00  0.00     0.047 C 
BRANCH  19  20
HETATM   20  C   UNL     1       1.449  16.498  22.955  0.00  0.00     0.085 C 
BRANCH  20  21
HETATM   21  C   UNL     1       2.645  15.874  22.343  0.00  0.00     0.134 A 
HETATM   22  N   UNL     1       3.072  14.636  22.484  0.00  0.00    -0.148 NA
HETATM   23  N   UNL     1       4.221  14.542  21.737  0.00  0.00     0.017 NA
HETATM   24  N   UNL     1       4.494  15.693  21.136  0.00  0.00    -0.005 NA
HETATM   25  N   UNL     1       3.514  16.524  21.513  0.00  0.00    -0.272 N 
HETATM   26  H   UNL     1       3.520  17.479  21.181  0.00  0.00     0.185 HD
ENDBRANCH  20  21
ENDBRANCH  19  20
ENDBRANCH  12  19
ENDBRANCH   1  11
BRANCH  10  27
HETATM   27  C   UNL     1      -0.409  11.550  24.998  0.00  0.00     0.273 C 
HETATM   28  O   UNL     1       0.395  12.480  25.105  0.00  0.00    -0.266 OA
HETATM   29  N   UNL     1       0.062  10.252  24.778  0.00  0.00    -0.342 N 
HETATM   30  C   UNL     1      -0.663   9.022  24.441  0.00  0.00     0.139 C 
HETATM   31  C   UNL     1       1.500  10.041  24.697  0.00  0.00     0.161 C 
HETATM   32  C   UNL     1       0.290   7.896  24.834  0.00  0.00     0.056 C 
HETATM   33  C   UNL     1       1.640   8.549  24.688  0.00  0.00    -0.056 C 
HETATM   34  C   UNL     1       0.211   6.586  24.097  0.00  0.00    -0.020 C 
HETATM   35  C   UNL     1       2.756   7.828  24.494  0.00  0.00    -0.018 C 
HETATM   36  C   UNL     1       2.694   6.329  24.332  0.00  0.00     0.054 C 
HETATM   37  C   UNL     1       1.324   5.849  23.905  0.00  0.00    -0.026 C 
ENDBRANCH  10  27
BRANCH   8  38
HETATM   38  N   UNL     1      -4.238  10.972  27.666  0.00  0.00    -0.271 NA
HETATM   39  H   UNL     1      -3.647  11.104  28.473  0.00  0.00     0.127 HD
HETATM   40  H   UNL     1      -5.219  11.193  27.753  0.00  0.00     0.127 HD
ENDBRANCH   8  38
TORSDOF 6
ENDMDL
