REMARK  6 active torsions:
REMARK  status: ('A' for Active; 'I' for Inactive)
REMARK    1  A    between atoms: C_6  and  C_7 
REMARK    2  A    between atoms: C_7  and  C_8 
REMARK    3  A    between atoms: C_8  and  C_9 
REMARK    4  A    between atoms: C_16  and  C_17 
REMARK    5  A    between atoms: C_24  and  N_25 
REMARK    6  A    between atoms: C_27  and  C_28 
REMARK       I    between atoms: C_28  and  N_30 
ROOT
HETATM    1  C   UNL     1      -0.474   4.838   1.101  0.00  0.00    -0.024 A 
HETATM    2  C   UNL     1      -0.072   3.571   1.593  0.00  0.00     0.028 A 
HETATM    3  C   UNL     1       0.555   5.773   0.971  0.00  0.00     0.014 A 
HETATM    4  C   UNL     1       1.882   5.462   1.297  0.00  0.00     0.033 A 
HETATM    5  C   UNL     1       2.273   4.188   1.671  0.00  0.00     0.073 A 
HETATM    6  C   UNL     1       1.301   3.198   1.806  0.00  0.00     0.028 A 
HETATM    7  N   UNL     1       3.582   3.974   1.829  0.00  0.00    -0.218 NA
HETATM    8  C   UNL     1       3.984   2.731   2.058  0.00  0.00     0.200 A 
HETATM    9  N   UNL     1       3.174   1.700   2.214  0.00  0.00    -0.212 NA
HETATM   10  C   UNL     1       1.846   1.926   2.101  0.00  0.00     0.140 A 
ENDROOT
BRANCH   1  11
HETATM   11  C   UNL     1      -1.871   5.084   0.594  0.00  0.00    -0.017 A 
HETATM   12  C   UNL     1      -2.532   6.352   0.514  0.00  0.00    -0.043 A 
HETATM   13  C   UNL     1      -3.752   6.450  -0.204  0.00  0.00     0.053 A 
HETATM   14  C   UNL     1      -4.393   5.330  -0.701  0.00  0.00     0.155 A 
HETATM   15  F   UNL     1      -5.574   5.471  -1.322  0.00  0.00    -0.203 F 
HETATM   16  C   UNL     1      -3.821   4.089  -0.550  0.00  0.00     0.155 A 
HETATM   17  F   UNL     1      -4.436   2.996  -1.015  0.00  0.00    -0.203 F 
HETATM   18  C   UNL     1      -2.573   3.970   0.057  0.00  0.00     0.058 A 
BRANCH  12  19
HETATM   19  C   UNL     1      -1.988   7.630   1.147  0.00  0.00     0.047 C 
BRANCH  19  20
HETATM   20  C   UNL     1      -3.015   8.680   1.628  0.00  0.00     0.085 C 
BRANCH  20  21
HETATM   21  C   UNL     1      -3.925   8.151   2.671  0.00  0.00     0.134 A 
HETATM   22  N   UNL     1      -3.612   7.731   3.879  0.00  0.00    -0.148 NA
HETATM   23  N   UNL     1      -4.789   7.326   4.459  0.00  0.00     0.017 NA
HETATM   24  N   UNL     1      -5.812   7.503   3.633  0.00  0.00    -0.005 NA
HETATM   25  N   UNL     1      -5.276   8.016   2.519  0.00  0.00    -0.272 N 
HETATM   26  H   UNL     1      -5.876   8.226   1.732  0.00  0.00     0.185 HD
ENDBRANCH  20  21
ENDBRANCH  19  20
ENDBRANCH  12  19
ENDBRANCH   1  11
BRANCH  10  27
HETATM   27  C   UNL     1       1.002   0.667   2.132  0.00  0.00     0.273 C 
HETATM   28  O   UNL     1      -0.105   0.679   1.587  0.00  0.00    -0.266 OA
HETATM   29  N   UNL     1       1.473  -0.515   2.712  0.00  0.00    -0.342 N 
HETATM   30  C   UNL     1       2.645  -0.755   3.561  0.00  0.00     0.139 C 
HETATM   31  C   UNL     1       0.638  -1.704   2.638  0.00  0.00     0.161 C 
HETATM   32  C   UNL     1       2.905  -2.255   3.440  0.00  0.00     0.056 C 
HETATM   33  C   UNL     1       1.531  -2.797   3.141  0.00  0.00    -0.056 C 
HETATM   34  C   UNL     1       3.561  -2.974   4.588  0.00  0.00    -0.020 C 
HETATM   35  C   UNL     1       1.205  -4.075   3.398  0.00  0.00    -0.018 C 
HETATM   36  C   UNL     1       2.181  -5.004   4.076  0.00  0.00     0.054 C 
HETATM   37  C   UNL     1       3.248  -4.260   4.848  0.00  0.00    -0.026 C 
ENDBRANCH  10  27
BRANCH   8  38
HETATM   38  N   UNL     1       5.336   2.492   2.143  0.00  0.00    -0.271 NA
HETATM   39  H   UNL     1       5.835   3.320   2.434  0.00  0.00     0.127 HD
HETATM   40  H   UNL     1       5.528   1.627   2.625  0.00  0.00     0.127 HD
ENDBRANCH   8  38
TORSDOF 6
