MODEL 1
REMARK VINA RESULT:    -8.238      0.000      0.000
REMARK INTER + INTRA:         -12.639
REMARK INTER:                 -10.142
REMARK INTRA:                  -2.497
REMARK UNBOUND:                -1.511
REMARK  7 active torsions:
REMARK  status: ('A' for Active; 'I' for Inactive)
REMARK    1  A    between atoms: C_2  and  N_4 
REMARK    2  A    between atoms: N_4  and  S_6 
REMARK    3  A    between atoms: S_6  and  C_9 
REMARK    4  A    between atoms: C_11  and  C_12 
REMARK    5  A    between atoms: N_17  and  C_18 
REMARK    6  A    between atoms: C_25  and  O_26 
REMARK    7  A    between atoms: C_28  and  O_29 
ROOT
HETATM    1  C   UNL     1       1.567  13.735  22.413  0.00  0.00     0.113 A 
HETATM    2  C   UNL     1       0.466  12.901  22.130  0.00  0.00     0.042 A 
HETATM    3  C   UNL     1      -0.397  12.426  23.137  0.00  0.00     0.023 A 
HETATM    4  C   UNL     1      -0.076  12.767  24.458  0.00  0.00     0.078 A 
HETATM    5  C   UNL     1       1.029  13.574  24.752  0.00  0.00     0.075 A 
HETATM    6  C   UNL     1       1.844  14.073  23.732  0.00  0.00     0.091 A 
ENDROOT
BRANCH   3   7
HETATM    7  C   UNL     1      -1.584  11.587  22.687  0.00  0.00     0.277 C 
HETATM    8  N   UNL     1      -1.773  10.403  23.553  0.00  0.00    -0.156 NA
HETATM    9  N   UNL     1      -2.989  10.288  23.870  0.00  0.00    -0.093 NA
HETATM   10  C   UNL     1      -3.707  11.352  23.356  0.00  0.00     0.369 C 
HETATM   11  O   UNL     1      -4.921  11.479  23.444  0.00  0.00    -0.243 OA
HETATM   12  N   UNL     1      -2.847  12.234  22.734  0.00  0.00    -0.264 N 
BRANCH  12  13
HETATM   13  C   UNL     1      -3.228  13.377  22.002  0.00  0.00     0.080 A 
HETATM   14  C   UNL     1      -2.995  13.405  20.618  0.00  0.00     0.033 A 
HETATM   15  C   UNL     1      -3.473  14.463  19.843  0.00  0.00     0.002 A 
HETATM   16  C   UNL     1      -4.137  15.530  20.444  0.00  0.00     0.003 A 
HETATM   17  C   UNL     1      -4.337  15.533  21.823  0.00  0.00     0.044 A 
HETATM   18  C   UNL     1      -3.906  14.451  22.585  0.00  0.00     0.143 A 
HETATM   19  F   UNL     1      -4.109  14.486  23.911  0.00  0.00    -0.204 F 
ENDBRANCH  12  13
ENDBRANCH   3   7
BRANCH   4  20
HETATM   20  O   UNL     1      -0.793  12.371  25.550  0.00  0.00    -0.360 OA
HETATM   21  H   UNL     1      -0.244  11.815  26.122  0.00  0.00     0.217 HD
ENDBRANCH   4  20
BRANCH   1  22
HETATM   22  S   UNL     1       2.369  14.521  21.020  0.00  0.00     0.263 S 
HETATM   23  O   UNL     1       2.211  13.692  19.849  0.00  0.00    -0.200 OA
HETATM   24  O   UNL     1       3.717  14.828  21.471  0.00  0.00    -0.200 OA
BRANCH  22  25
HETATM   25  N   UNL     1       1.577  16.027  20.832  0.00  0.00    -0.307 N 
HETATM   26  C   UNL     1       2.207  17.142  21.587  0.00  0.00     0.163 C 
BRANCH  25  27
HETATM   27  C   UNL     1       0.084  16.122  20.764  0.00  0.00     0.087 C 
HETATM   28  C   UNL     1      -0.470  16.583  22.128  0.00  0.00     0.032 C 
HETATM   29  C   UNL     1      -0.425  17.138  19.738  0.00  0.00     0.032 C 
ENDBRANCH  25  27
ENDBRANCH  22  25
ENDBRANCH   1  22
BRANCH   6  30
HETATM   30  O   UNL     1       2.909  14.848  24.066  0.00  0.00    -0.359 OA
HETATM   31  H   UNL     1       2.611  15.765  24.218  0.00  0.00     0.217 HD
ENDBRANCH   6  30
TORSDOF 7
ENDMDL
MODEL 2
REMARK VINA RESULT:    -7.834      2.409      5.842
REMARK INTER + INTRA:         -12.092
REMARK INTER:                 -10.416
REMARK INTRA:                  -1.676
REMARK UNBOUND:                -1.511
REMARK  7 active torsions:
REMARK  status: ('A' for Active; 'I' for Inactive)
REMARK    1  A    between atoms: C_2  and  N_4 
REMARK    2  A    between atoms: N_4  and  S_6 
REMARK    3  A    between atoms: S_6  and  C_9 
REMARK    4  A    between atoms: C_11  and  C_12 
REMARK    5  A    between atoms: N_17  and  C_18 
REMARK    6  A    between atoms: C_25  and  O_26 
REMARK    7  A    between atoms: C_28  and  O_29 
ROOT
HETATM    1  C   UNL     1      -0.960  13.044  25.011  0.00  0.00     0.113 A 
HETATM    2  C   UNL     1      -0.944  14.295  24.361  0.00  0.00     0.042 A 
HETATM    3  C   UNL     1      -0.008  14.609  23.356  0.00  0.00     0.023 A 
HETATM    4  C   UNL     1       0.962  13.638  23.069  0.00  0.00     0.078 A 
HETATM    5  C   UNL     1       0.969  12.402  23.725  0.00  0.00     0.075 A 
HETATM    6  C   UNL     1       0.002  12.095  24.686  0.00  0.00     0.091 A 
ENDROOT
BRANCH   3   7
HETATM    7  C   UNL     1      -0.143  15.971  22.691  0.00  0.00     0.277 C 
HETATM    8  N   UNL     1       1.169  16.640  22.552  0.00  0.00    -0.156 NA
HETATM    9  N   UNL     1       1.294  17.111  21.387  0.00  0.00    -0.093 NA
HETATM   10  C   UNL     1       0.191  16.771  20.627  0.00  0.00     0.369 C 
HETATM   11  O   UNL     1      -0.002  17.140  19.477  0.00  0.00    -0.243 OA
HETATM   12  N   UNL     1      -0.648  15.961  21.365  0.00  0.00    -0.264 N 
BRANCH  12  13
HETATM   13  C   UNL     1      -1.920  15.506  20.959  0.00  0.00     0.080 A 
HETATM   14  C   UNL     1      -2.955  16.442  20.797  0.00  0.00     0.033 A 
HETATM   15  C   UNL     1      -4.187  16.047  20.275  0.00  0.00     0.002 A 
HETATM   16  C   UNL     1      -4.423  14.710  19.962  0.00  0.00     0.003 A 
HETATM   17  C   UNL     1      -3.418  13.766  20.159  0.00  0.00     0.044 A 
HETATM   18  C   UNL     1      -2.172  14.172  20.629  0.00  0.00     0.143 A 
HETATM   19  F   UNL     1      -1.226  13.238  20.812  0.00  0.00    -0.204 F 
ENDBRANCH  12  13
ENDBRANCH   3   7
BRANCH   4  20
HETATM   20  O   UNL     1       1.951  13.792  22.141  0.00  0.00    -0.360 OA
HETATM   21  H   UNL     1       2.765  13.368  22.453  0.00  0.00     0.217 HD
ENDBRANCH   4  20
BRANCH   1  22
HETATM   22  S   UNL     1      -2.392  12.671  26.017  0.00  0.00     0.263 S 
HETATM   23  O   UNL     1      -3.021  13.903  26.426  0.00  0.00    -0.200 OA
HETATM   24  O   UNL     1      -1.915  11.764  27.049  0.00  0.00    -0.200 OA
BRANCH  22  25
HETATM   25  N   UNL     1      -3.423  11.746  25.012  0.00  0.00    -0.307 N 
HETATM   26  C   UNL     1      -3.293  12.052  23.563  0.00  0.00     0.163 C 
BRANCH  25  27
HETATM   27  C   UNL     1      -4.824  11.410  25.425  0.00  0.00     0.087 C 
HETATM   28  C   UNL     1      -5.427  10.390  24.438  0.00  0.00     0.032 C 
HETATM   29  C   UNL     1      -4.922  10.767  26.810  0.00  0.00     0.032 C 
ENDBRANCH  25  27
ENDBRANCH  22  25
ENDBRANCH   1  22
BRANCH   6  30
HETATM   30  O   UNL     1       0.053  10.885  25.302  0.00  0.00    -0.359 OA
HETATM   31  H   UNL     1      -0.628  10.846  26.001  0.00  0.00     0.217 HD
ENDBRANCH   6  30
TORSDOF 7
ENDMDL
MODEL 3
REMARK VINA RESULT:    -7.813      2.930      4.981
REMARK INTER + INTRA:         -12.064
REMARK INTER:                  -9.702
REMARK INTRA:                  -2.362
REMARK UNBOUND:                -1.511
REMARK  7 active torsions:
REMARK  status: ('A' for Active; 'I' for Inactive)
REMARK    1  A    between atoms: C_2  and  N_4 
REMARK    2  A    between atoms: N_4  and  S_6 
REMARK    3  A    between atoms: S_6  and  C_9 
REMARK    4  A    between atoms: C_11  and  C_12 
REMARK    5  A    between atoms: N_17  and  C_18 
REMARK    6  A    between atoms: C_25  and  O_26 
REMARK    7  A    between atoms: C_28  and  O_29 
ROOT
HETATM    1  C   UNL     1      -1.328  14.690  22.684  0.00  0.00     0.113 A 
HETATM    2  C   UNL     1      -1.128  14.239  24.004  0.00  0.00     0.042 A 
HETATM    3  C   UNL     1      -2.190  13.804  24.821  0.00  0.00     0.023 A 
HETATM    4  C   UNL     1      -3.482  13.899  24.282  0.00  0.00     0.078 A 
HETATM    5  C   UNL     1      -3.694  14.368  22.981  0.00  0.00     0.075 A 
HETATM    6  C   UNL     1      -2.619  14.750  22.173  0.00  0.00     0.091 A 
ENDROOT
BRANCH   3   7
HETATM    7  C   UNL     1      -1.828  13.281  26.203  0.00  0.00     0.277 C 
HETATM    8  N   UNL     1      -2.776  13.761  27.232  0.00  0.00    -0.156 NA
HETATM    9  N   UNL     1      -3.130  12.804  27.974  0.00  0.00    -0.093 NA
HETATM   10  C   UNL     1      -2.564  11.628  27.519  0.00  0.00     0.369 C 
HETATM   11  O   UNL     1      -2.673  10.543  28.074  0.00  0.00    -0.243 OA
HETATM   12  N   UNL     1      -1.863  11.871  26.356  0.00  0.00    -0.264 N 
BRANCH  12  13
HETATM   13  C   UNL     1      -1.065  10.936  25.665  0.00  0.00     0.080 A 
HETATM   14  C   UNL     1       0.222  10.653  26.149  0.00  0.00     0.033 A 
HETATM   15  C   UNL     1       0.989   9.642  25.567  0.00  0.00     0.002 A 
HETATM   16  C   UNL     1       0.507   8.941  24.464  0.00  0.00     0.003 A 
HETATM   17  C   UNL     1      -0.752   9.242  23.949  0.00  0.00     0.044 A 
HETATM   18  C   UNL     1      -1.535  10.214  24.565  0.00  0.00     0.143 A 
HETATM   19  F   UNL     1      -2.742  10.484  24.042  0.00  0.00    -0.204 F 
ENDBRANCH  12  13
ENDBRANCH   3   7
BRANCH   4  20
HETATM   20  O   UNL     1      -4.619  13.542  24.947  0.00  0.00    -0.360 OA
HETATM   21  H   UNL     1      -4.395  13.005  25.721  0.00  0.00     0.217 HD
ENDBRANCH   4  20
BRANCH   1  22
HETATM   22  S   UNL     1       0.129  14.895  21.666  0.00  0.00     0.263 S 
HETATM   23  O   UNL     1      -0.068  16.010  20.771  0.00  0.00    -0.200 OA
HETATM   24  O   UNL     1       0.388  13.585  21.090  0.00  0.00    -0.200 OA
BRANCH  22  25
HETATM   25  N   UNL     1       1.409  15.194  22.762  0.00  0.00    -0.307 N 
HETATM   26  C   UNL     1       1.960  16.573  22.690  0.00  0.00     0.163 C 
BRANCH  25  27
HETATM   27  C   UNL     1       2.447  14.153  23.056  0.00  0.00     0.087 C 
HETATM   28  C   UNL     1       3.840  14.684  22.665  0.00  0.00     0.032 C 
HETATM   29  C   UNL     1       2.540  13.774  24.536  0.00  0.00     0.032 C 
ENDBRANCH  25  27
ENDBRANCH  22  25
ENDBRANCH   1  22
BRANCH   6  30
HETATM   30  O   UNL     1      -2.874  15.205  20.918  0.00  0.00    -0.359 OA
HETATM   31  H   UNL     1      -3.113  16.151  20.956  0.00  0.00     0.217 HD
ENDBRANCH   6  30
TORSDOF 7
ENDMDL
MODEL 4
REMARK VINA RESULT:    -7.726      2.710      5.735
REMARK INTER + INTRA:         -11.947
REMARK INTER:                 -10.652
REMARK INTRA:                  -1.295
REMARK UNBOUND:                -1.511
REMARK  7 active torsions:
REMARK  status: ('A' for Active; 'I' for Inactive)
REMARK    1  A    between atoms: C_2  and  N_4 
REMARK    2  A    between atoms: N_4  and  S_6 
REMARK    3  A    between atoms: S_6  and  C_9 
REMARK    4  A    between atoms: C_11  and  C_12 
REMARK    5  A    between atoms: N_17  and  C_18 
REMARK    6  A    between atoms: C_25  and  O_26 
REMARK    7  A    between atoms: C_28  and  O_29 
ROOT
HETATM    1  C   UNL     1      -2.456  14.063  25.332  0.00  0.00     0.113 A 
HETATM    2  C   UNL     1      -1.565  14.555  24.356  0.00  0.00     0.042 A 
HETATM    3  C   UNL     1      -0.337  15.159  24.693  0.00  0.00     0.023 A 
HETATM    4  C   UNL     1      -0.062  15.313  26.059  0.00  0.00     0.078 A 
HETATM    5  C   UNL     1      -0.951  14.850  27.036  0.00  0.00     0.075 A 
HETATM    6  C   UNL     1      -2.141  14.212  26.677  0.00  0.00     0.091 A 
ENDROOT
BRANCH   3   7
HETATM    7  C   UNL     1       0.559  15.587  23.540  0.00  0.00     0.277 C 
HETATM    8  N   UNL     1       1.959  15.159  23.752  0.00  0.00    -0.156 NA
HETATM    9  N   UNL     1       2.415  14.635  22.699  0.00  0.00    -0.093 NA
HETATM   10  C   UNL     1       1.421  14.578  21.739  0.00  0.00     0.369 C 
HETATM   11  O   UNL     1       1.583  14.180  20.594  0.00  0.00    -0.243 OA
HETATM   12  N   UNL     1       0.235  15.038  22.272  0.00  0.00    -0.264 N 
BRANCH  12  13
HETATM   13  C   UNL     1      -0.968  15.229  21.562  0.00  0.00     0.080 A 
HETATM   14  C   UNL     1      -1.317  16.527  21.155  0.00  0.00     0.033 A 
HETATM   15  C   UNL     1      -2.431  16.735  20.341  0.00  0.00     0.002 A 
HETATM   16  C   UNL     1      -3.243  15.665  19.972  0.00  0.00     0.003 A 
HETATM   17  C   UNL     1      -2.930  14.378  20.406  0.00  0.00     0.044 A 
HETATM   18  C   UNL     1      -1.788  14.167  21.172  0.00  0.00     0.143 A 
HETATM   19  F   UNL     1      -1.516  12.917  21.577  0.00  0.00    -0.204 F 
ENDBRANCH  12  13
ENDBRANCH   3   7
BRANCH   4  20
HETATM   20  O   UNL     1       1.068  15.896  26.554  0.00  0.00    -0.360 OA
HETATM   21  H   UNL     1       1.560  16.325  25.838  0.00  0.00     0.217 HD
ENDBRANCH   4  20
BRANCH   1  22
HETATM   22  S   UNL     1      -3.804  13.037  24.757  0.00  0.00     0.263 S 
HETATM   23  O   UNL     1      -4.464  13.692  23.654  0.00  0.00    -0.200 OA
HETATM   24  O   UNL     1      -4.587  12.725  25.942  0.00  0.00    -0.200 OA
BRANCH  22  25
HETATM   25  N   UNL     1      -3.077  11.567  24.267  0.00  0.00    -0.307 N 
HETATM   26  C   UNL     1      -4.043  10.459  24.043  0.00  0.00     0.163 C 
BRANCH  25  27
HETATM   27  C   UNL     1      -1.770  11.111  24.839  0.00  0.00     0.087 C 
HETATM   28  C   UNL     1      -2.009  10.422  26.197  0.00  0.00     0.032 C 
HETATM   29  C   UNL     1      -1.038  10.086  23.969  0.00  0.00     0.032 C 
ENDBRANCH  25  27
ENDBRANCH  22  25
ENDBRANCH   1  22
BRANCH   6  30
HETATM   30  O   UNL     1      -2.976  13.784  27.660  0.00  0.00    -0.359 OA
HETATM   31  H   UNL     1      -3.277  14.548  28.188  0.00  0.00     0.217 HD
ENDBRANCH   6  30
TORSDOF 7
ENDMDL
MODEL 5
REMARK VINA RESULT:    -7.661      2.614      4.914
REMARK INTER + INTRA:         -11.858
REMARK INTER:                  -9.785
REMARK INTRA:                  -2.073
REMARK UNBOUND:                -1.511
REMARK  7 active torsions:
REMARK  status: ('A' for Active; 'I' for Inactive)
REMARK    1  A    between atoms: C_2  and  N_4 
REMARK    2  A    between atoms: N_4  and  S_6 
REMARK    3  A    between atoms: S_6  and  C_9 
REMARK    4  A    between atoms: C_11  and  C_12 
REMARK    5  A    between atoms: N_17  and  C_18 
REMARK    6  A    between atoms: C_25  and  O_26 
REMARK    7  A    between atoms: C_28  and  O_29 
ROOT
HETATM    1  C   UNL     1       0.219  15.701  23.231  0.00  0.00     0.113 A 
HETATM    2  C   UNL     1      -1.145  15.581  22.892  0.00  0.00     0.042 A 
HETATM    3  C   UNL     1      -1.647  15.980  21.638  0.00  0.00     0.023 A 
HETATM    4  C   UNL     1      -0.736  16.568  20.750  0.00  0.00     0.078 A 
HETATM    5  C   UNL     1       0.615  16.713  21.085  0.00  0.00     0.075 A 
HETATM    6  C   UNL     1       1.100  16.268  22.318  0.00  0.00     0.091 A 
ENDROOT
BRANCH   3   7
HETATM    7  C   UNL     1      -3.127  15.736  21.379  0.00  0.00     0.277 C 
HETATM    8  N   UNL     1      -3.611  16.514  20.219  0.00  0.00    -0.156 NA
HETATM    9  N   UNL     1      -4.303  15.778  19.462  0.00  0.00    -0.093 NA
HETATM   10  C   UNL     1      -4.303  14.483  19.946  0.00  0.00     0.369 C 
HETATM   11  O   UNL     1      -4.941  13.559  19.460  0.00  0.00    -0.243 OA
HETATM   12  N   UNL     1      -3.482  14.402  21.052  0.00  0.00    -0.264 N 
BRANCH  12  13
HETATM   13  C   UNL     1      -3.319  13.268  21.875  0.00  0.00     0.080 A 
HETATM   14  C   UNL     1      -4.055  13.184  23.067  0.00  0.00     0.033 A 
HETATM   15  C   UNL     1      -4.017  12.022  23.840  0.00  0.00     0.002 A 
HETATM   16  C   UNL     1      -3.202  10.955  23.465  0.00  0.00     0.003 A 
HETATM   17  C   UNL     1      -2.434  11.045  22.306  0.00  0.00     0.044 A 
HETATM   18  C   UNL     1      -2.517  12.183  21.510  0.00  0.00     0.143 A 
HETATM   19  F   UNL     1      -1.762  12.241  20.402  0.00  0.00    -0.204 F 
ENDBRANCH  12  13
ENDBRANCH   3   7
BRANCH   4  20
HETATM   20  O   UNL     1      -1.063  17.028  19.507  0.00  0.00    -0.360 OA
HETATM   21  H   UNL     1      -0.403  17.672  19.209  0.00  0.00     0.217 HD
ENDBRANCH   4  20
BRANCH   1  22
HETATM   22  S   UNL     1       0.764  14.860  24.713  0.00  0.00     0.263 S 
HETATM   23  O   UNL     1       0.416  15.654  25.867  0.00  0.00    -0.200 OA
HETATM   24  O   UNL     1       2.167  14.548  24.488  0.00  0.00    -0.200 OA
BRANCH  22  25
HETATM   25  N   UNL     1      -0.062  13.361  24.714  0.00  0.00    -0.307 N 
HETATM   26  C   UNL     1      -1.153  13.271  25.719  0.00  0.00     0.163 C 
BRANCH  25  27
HETATM   27  C   UNL     1       0.664  12.067  24.507  0.00  0.00     0.087 C 
HETATM   28  C   UNL     1      -0.068  10.935  25.255  0.00  0.00     0.032 C 
HETATM   29  C   UNL     1       0.738  11.627  23.043  0.00  0.00     0.032 C 
ENDBRANCH  25  27
ENDBRANCH  22  25
ENDBRANCH   1  22
BRANCH   6  30
HETATM   30  O   UNL     1       2.417  16.436  22.602  0.00  0.00    -0.359 OA
HETATM   31  H   UNL     1       2.766  15.628  23.026  0.00  0.00     0.217 HD
ENDBRANCH   6  30
TORSDOF 7
ENDMDL
MODEL 6
REMARK VINA RESULT:    -7.618      2.894      5.566
REMARK INTER + INTRA:         -11.801
REMARK INTER:                 -10.408
REMARK INTRA:                  -1.393
REMARK UNBOUND:                -1.511
REMARK  7 active torsions:
REMARK  status: ('A' for Active; 'I' for Inactive)
REMARK    1  A    between atoms: C_2  and  N_4 
REMARK    2  A    between atoms: N_4  and  S_6 
REMARK    3  A    between atoms: S_6  and  C_9 
REMARK    4  A    between atoms: C_11  and  C_12 
REMARK    5  A    between atoms: N_17  and  C_18 
REMARK    6  A    between atoms: C_25  and  O_26 
REMARK    7  A    between atoms: C_28  and  O_29 
ROOT
HETATM    1  C   UNL     1      -2.218  13.135  26.418  0.00  0.00     0.113 A 
HETATM    2  C   UNL     1      -1.580  12.936  25.177  0.00  0.00     0.042 A 
HETATM    3  C   UNL     1      -0.645  13.851  24.654  0.00  0.00     0.023 A 
HETATM    4  C   UNL     1      -0.418  15.017  25.398  0.00  0.00     0.078 A 
HETATM    5  C   UNL     1      -1.065  15.237  26.620  0.00  0.00     0.075 A 
HETATM    6  C   UNL     1      -1.953  14.293  27.141  0.00  0.00     0.091 A 
ENDROOT
BRANCH   3   7
HETATM    7  C   UNL     1       0.018  13.482  23.335  0.00  0.00     0.277 C 
HETATM    8  N   UNL     1       0.549  12.102  23.361  0.00  0.00    -0.156 NA
HETATM    9  N   UNL     1       0.220  11.492  22.306  0.00  0.00    -0.093 NA
HETATM   10  C   UNL     1      -0.585  12.305  21.529  0.00  0.00     0.369 C 
HETATM   11  O   UNL     1      -1.006  12.011  20.419  0.00  0.00    -0.243 OA
HETATM   12  N   UNL     1      -0.831  13.487  22.198  0.00  0.00    -0.264 N 
BRANCH  12  13
HETATM   13  C   UNL     1      -1.521  14.600  21.675  0.00  0.00     0.080 A 
HETATM   14  C   UNL     1      -0.780  15.677  21.161  0.00  0.00     0.033 A 
HETATM   15  C   UNL     1      -1.425  16.735  20.520  0.00  0.00     0.002 A 
HETATM   16  C   UNL     1      -2.816  16.763  20.435  0.00  0.00     0.003 A 
HETATM   17  C   UNL     1      -3.563  15.720  20.979  0.00  0.00     0.044 A 
HETATM   18  C   UNL     1      -2.914  14.640  21.569  0.00  0.00     0.143 A 
HETATM   19  F   UNL     1      -3.661  13.654  22.088  0.00  0.00    -0.204 F 
ENDBRANCH  12  13
ENDBRANCH   3   7
BRANCH   4  20
HETATM   20  O   UNL     1       0.437  16.013  25.024  0.00  0.00    -0.360 OA
HETATM   21  H   UNL     1       0.927  15.748  24.232  0.00  0.00     0.217 HD
ENDBRANCH   4  20
BRANCH   1  22
HETATM   22  S   UNL     1      -3.119  11.749  27.100  0.00  0.00     0.263 S 
HETATM   23  O   UNL     1      -4.388  12.210  27.609  0.00  0.00    -0.200 OA
HETATM   24  O   UNL     1      -2.199  11.104  28.023  0.00  0.00    -0.200 OA
BRANCH  22  25
HETATM   25  N   UNL     1      -3.327  10.658  25.797  0.00  0.00    -0.307 N 
HETATM   26  C   UNL     1      -2.125   9.839  25.495  0.00  0.00     0.163 C 
BRANCH  25  27
HETATM   27  C   UNL     1      -4.112  11.036  24.578  0.00  0.00     0.087 C 
HETATM   28  C   UNL     1      -3.330  10.633  23.312  0.00  0.00     0.032 C 
HETATM   29  C   UNL     1      -5.470  10.337  24.476  0.00  0.00     0.032 C 
ENDBRANCH  25  27
ENDBRANCH  22  25
ENDBRANCH   1  22
BRANCH   6  30
HETATM   30  O   UNL     1      -2.562  14.552  28.327  0.00  0.00    -0.359 OA
HETATM   31  H   UNL     1      -2.343  15.458  28.616  0.00  0.00     0.217 HD
ENDBRANCH   6  30
TORSDOF 7
ENDMDL
MODEL 7
REMARK VINA RESULT:    -7.541      3.535      6.322
REMARK INTER + INTRA:         -11.696
REMARK INTER:                  -9.457
REMARK INTRA:                  -2.239
REMARK UNBOUND:                -1.511
REMARK  7 active torsions:
REMARK  status: ('A' for Active; 'I' for Inactive)
REMARK    1  A    between atoms: C_2  and  N_4 
REMARK    2  A    between atoms: N_4  and  S_6 
REMARK    3  A    between atoms: S_6  and  C_9 
REMARK    4  A    between atoms: C_11  and  C_12 
REMARK    5  A    between atoms: N_17  and  C_18 
REMARK    6  A    between atoms: C_25  and  O_26 
REMARK    7  A    between atoms: C_28  and  O_29 
ROOT
HETATM    1  C   UNL     1      -1.631   9.956  26.619  0.00  0.00     0.113 A 
HETATM    2  C   UNL     1      -1.735  10.379  25.278  0.00  0.00     0.042 A 
HETATM    3  C   UNL     1      -2.433  11.545  24.907  0.00  0.00     0.023 A 
HETATM    4  C   UNL     1      -3.084  12.245  25.934  0.00  0.00     0.078 A 
HETATM    5  C   UNL     1      -3.008  11.820  27.265  0.00  0.00     0.075 A 
HETATM    6  C   UNL     1      -2.270  10.686  27.614  0.00  0.00     0.091 A 
ENDROOT
BRANCH   3   7
HETATM    7  C   UNL     1      -2.413  11.922  23.434  0.00  0.00     0.277 C 
HETATM    8  N   UNL     1      -3.773  11.918  22.852  0.00  0.00    -0.156 NA
HETATM    9  N   UNL     1      -3.955  12.963  22.168  0.00  0.00    -0.093 NA
HETATM   10  C   UNL     1      -2.844  13.780  22.263  0.00  0.00     0.369 C 
HETATM   11  O   UNL     1      -2.701  14.832  21.656  0.00  0.00    -0.243 OA
HETATM   12  N   UNL     1      -1.933  13.225  23.138  0.00  0.00    -0.264 N 
BRANCH  12  13
HETATM   13  C   UNL     1      -0.639  13.718  23.403  0.00  0.00     0.080 A 
HETATM   14  C   UNL     1       0.445  13.207  22.671  0.00  0.00     0.033 A 
HETATM   15  C   UNL     1       1.718  13.762  22.814  0.00  0.00     0.002 A 
HETATM   16  C   UNL     1       1.937  14.790  23.728  0.00  0.00     0.003 A 
HETATM   17  C   UNL     1       0.877  15.277  24.491  0.00  0.00     0.044 A 
HETATM   18  C   UNL     1      -0.401  14.758  24.306  0.00  0.00     0.143 A 
HETATM   19  F   UNL     1      -1.400  15.245  25.058  0.00  0.00    -0.204 F 
ENDBRANCH  12  13
ENDBRANCH   3   7
BRANCH   4  20
HETATM   20  O   UNL     1      -3.821  13.378  25.743  0.00  0.00    -0.360 OA
HETATM   21  H   UNL     1      -4.244  13.355  24.872  0.00  0.00     0.217 HD
ENDBRANCH   4  20
BRANCH   1  22
HETATM   22  S   UNL     1      -0.451   8.658  26.972  0.00  0.00     0.263 S 
HETATM   23  O   UNL     1      -1.144   7.527  27.540  0.00  0.00    -0.200 OA
HETATM   24  O   UNL     1       0.597   9.290  27.757  0.00  0.00    -0.200 OA
BRANCH  22  25
HETATM   25  N   UNL     1       0.256   8.265  25.463  0.00  0.00    -0.307 N 
HETATM   26  C   UNL     1      -0.074   6.900  24.976  0.00  0.00     0.163 C 
BRANCH  25  27
HETATM   27  C   UNL     1       1.645   8.702  25.113  0.00  0.00     0.087 C 
HETATM   28  C   UNL     1       2.096   8.008  23.812  0.00  0.00     0.032 C 
HETATM   29  C   UNL     1       1.775  10.205  24.855  0.00  0.00     0.032 C 
ENDBRANCH  25  27
ENDBRANCH  22  25
ENDBRANCH   1  22
BRANCH   6  30
HETATM   30  O   UNL     1      -2.229  10.308  28.918  0.00  0.00    -0.359 OA
HETATM   31  H   UNL     1      -2.686  10.975  29.466  0.00  0.00     0.217 HD
ENDBRANCH   6  30
TORSDOF 7
ENDMDL
MODEL 8
REMARK VINA RESULT:    -7.541      3.106      6.726
REMARK INTER + INTRA:         -11.696
REMARK INTER:                 -10.185
REMARK INTRA:                  -1.511
REMARK UNBOUND:                -1.511
REMARK  7 active torsions:
REMARK  status: ('A' for Active; 'I' for Inactive)
REMARK    1  A    between atoms: C_2  and  N_4 
REMARK    2  A    between atoms: N_4  and  S_6 
REMARK    3  A    between atoms: S_6  and  C_9 
REMARK    4  A    between atoms: C_11  and  C_12 
REMARK    5  A    between atoms: N_17  and  C_18 
REMARK    6  A    between atoms: C_25  and  O_26 
REMARK    7  A    between atoms: C_28  and  O_29 
ROOT
HETATM    1  C   UNL     1      -3.171  13.429  23.264  0.00  0.00     0.113 A 
HETATM    2  C   UNL     1      -2.000  14.032  23.765  0.00  0.00     0.042 A 
HETATM    3  C   UNL     1      -1.419  15.166  23.164  0.00  0.00     0.023 A 
HETATM    4  C   UNL     1      -2.025  15.639  21.991  0.00  0.00     0.078 A 
HETATM    5  C   UNL     1      -3.174  15.033  21.471  0.00  0.00     0.075 A 
HETATM    6  C   UNL     1      -3.759  13.938  22.112  0.00  0.00     0.091 A 
ENDROOT
BRANCH   3   7
HETATM    7  C   UNL     1      -0.193  15.755  23.845  0.00  0.00     0.277 C 
HETATM    8  N   UNL     1      -0.191  15.478  25.297  0.00  0.00    -0.156 NA
HETATM    9  N   UNL     1       0.946  15.066  25.658  0.00  0.00    -0.093 NA
HETATM   10  C   UNL     1       1.771  14.950  24.555  0.00  0.00     0.369 C 
HETATM   11  O   UNL     1       2.952  14.636  24.599  0.00  0.00    -0.243 OA
HETATM   12  N   UNL     1       1.058  15.243  23.410  0.00  0.00    -0.264 N 
BRANCH  12  13
HETATM   13  C   UNL     1       1.591  15.335  22.108  0.00  0.00     0.080 A 
HETATM   14  C   UNL     1       1.961  16.596  21.614  0.00  0.00     0.033 A 
HETATM   15  C   UNL     1       2.610  16.710  20.384  0.00  0.00     0.002 A 
HETATM   16  C   UNL     1       2.846  15.578  19.607  0.00  0.00     0.003 A 
HETATM   17  C   UNL     1       2.445  14.326  20.068  0.00  0.00     0.044 A 
HETATM   18  C   UNL     1       1.847  14.210  21.319  0.00  0.00     0.143 A 
HETATM   19  F   UNL     1       1.469  12.991  21.734  0.00  0.00    -0.204 F 
ENDBRANCH  12  13
ENDBRANCH   3   7
BRANCH   4  20
HETATM   20  O   UNL     1      -1.576  16.711  21.274  0.00  0.00    -0.360 OA
HETATM   21  H   UNL     1      -1.777  17.532  21.746  0.00  0.00     0.217 HD
ENDBRANCH   4  20
BRANCH   1  22
HETATM   22  S   UNL     1      -3.971  12.216  24.307  0.00  0.00     0.263 S 
HETATM   23  O   UNL     1      -4.780  11.344  23.490  0.00  0.00    -0.200 OA
HETATM   24  O   UNL     1      -4.625  12.978  25.358  0.00  0.00    -0.200 OA
BRANCH  22  25
HETATM   25  N   UNL     1      -2.697  11.359  25.064  0.00  0.00    -0.307 N 
HETATM   26  C   UNL     1      -2.040  10.352  24.190  0.00  0.00     0.163 C 
BRANCH  25  27
HETATM   27  C   UNL     1      -2.783  10.935  26.499  0.00  0.00     0.087 C 
HETATM   28  C   UNL     1      -1.627   9.968  26.825  0.00  0.00     0.032 C 
HETATM   29  C   UNL     1      -2.660  12.092  27.494  0.00  0.00     0.032 C 
ENDBRANCH  25  27
ENDBRANCH  22  25
ENDBRANCH   1  22
BRANCH   6  30
HETATM   30  O   UNL     1      -4.871  13.379  21.567  0.00  0.00    -0.359 OA
HETATM   31  H   UNL     1      -4.756  12.411  21.513  0.00  0.00     0.217 HD
ENDBRANCH   6  30
TORSDOF 7
ENDMDL
MODEL 9
REMARK VINA RESULT:    -7.527      3.886      6.515
REMARK INTER + INTRA:         -11.677
REMARK INTER:                  -9.625
REMARK INTRA:                  -2.052
REMARK UNBOUND:                -1.511
REMARK  7 active torsions:
REMARK  status: ('A' for Active; 'I' for Inactive)
REMARK    1  A    between atoms: C_2  and  N_4 
REMARK    2  A    between atoms: N_4  and  S_6 
REMARK    3  A    between atoms: S_6  and  C_9 
REMARK    4  A    between atoms: C_11  and  C_12 
REMARK    5  A    between atoms: N_17  and  C_18 
REMARK    6  A    between atoms: C_25  and  O_26 
REMARK    7  A    between atoms: C_28  and  O_29 
ROOT
HETATM    1  C   UNL     1      -0.450   9.582  26.367  0.00  0.00     0.113 A 
HETATM    2  C   UNL     1      -0.920  10.197  25.189  0.00  0.00     0.042 A 
HETATM    3  C   UNL     1      -2.099  10.967  25.159  0.00  0.00     0.023 A 
HETATM    4  C   UNL     1      -2.834  11.045  26.351  0.00  0.00     0.078 A 
HETATM    5  C   UNL     1      -2.389  10.418  27.520  0.00  0.00     0.075 A 
HETATM    6  C   UNL     1      -1.191   9.699  27.537  0.00  0.00     0.091 A 
ENDROOT
BRANCH   3   7
HETATM    7  C   UNL     1      -2.458  11.629  23.836  0.00  0.00     0.277 C 
HETATM    8  N   UNL     1      -3.814  11.246  23.387  0.00  0.00    -0.156 NA
HETATM    9  N   UNL     1      -4.451  12.270  23.014  0.00  0.00    -0.093 NA
HETATM   10  C   UNL     1      -3.682  13.400  23.226  0.00  0.00     0.369 C 
HETATM   11  O   UNL     1      -4.008  14.534  22.904  0.00  0.00    -0.243 OA
HETATM   12  N   UNL     1      -2.503  13.047  23.851  0.00  0.00    -0.264 N 
BRANCH  12  13
HETATM   13  C   UNL     1      -1.427  13.915  24.128  0.00  0.00     0.080 A 
HETATM   14  C   UNL     1      -1.357  14.526  25.390  0.00  0.00     0.033 A 
HETATM   15  C   UNL     1      -0.241  15.287  25.745  0.00  0.00     0.002 A 
HETATM   16  C   UNL     1       0.788  15.495  24.829  0.00  0.00     0.003 A 
HETATM   17  C   UNL     1       0.708  14.928  23.558  0.00  0.00     0.044 A 
HETATM   18  C   UNL     1      -0.379  14.125  23.227  0.00  0.00     0.143 A 
HETATM   19  F   UNL     1      -0.428  13.597  21.995  0.00  0.00    -0.204 F 
ENDBRANCH  12  13
ENDBRANCH   3   7
BRANCH   4  20
HETATM   20  O   UNL     1      -4.007  11.729  26.487  0.00  0.00    -0.360 OA
HETATM   21  H   UNL     1      -4.507  11.695  25.658  0.00  0.00     0.217 HD
ENDBRANCH   4  20
BRANCH   1  22
HETATM   22  S   UNL     1       1.212   8.922  26.332  0.00  0.00     0.263 S 
HETATM   23  O   UNL     1       1.620   8.586  27.675  0.00  0.00    -0.200 OA
HETATM   24  O   UNL     1       2.001   9.897  25.595  0.00  0.00    -0.200 OA
BRANCH  22  25
HETATM   25  N   UNL     1       1.127   7.531  25.338  0.00  0.00    -0.307 N 
HETATM   26  C   UNL     1       1.823   7.676  24.032  0.00  0.00     0.163 C 
BRANCH  25  27
HETATM   27  C   UNL     1      -0.117   6.700  25.260  0.00  0.00     0.087 C 
HETATM   28  C   UNL     1      -0.017   5.725  24.069  0.00  0.00     0.032 C 
HETATM   29  C   UNL     1      -0.358   5.831  26.497  0.00  0.00     0.032 C 
ENDBRANCH  25  27
ENDBRANCH  22  25
ENDBRANCH   1  22
BRANCH   6  30
HETATM   30  O   UNL     1      -0.803   9.102  28.694  0.00  0.00    -0.359 OA
HETATM   31  H   UNL     1      -1.259   9.522  29.448  0.00  0.00     0.217 HD
ENDBRANCH   6  30
TORSDOF 7
ENDMDL
