REMARK  7 active torsions:
REMARK  status: ('A' for Active; 'I' for Inactive)
REMARK    1  A    between atoms: C_2  and  N_4 
REMARK    2  A    between atoms: N_4  and  S_6 
REMARK    3  A    between atoms: S_6  and  C_9 
REMARK    4  A    between atoms: C_11  and  C_12 
REMARK    5  A    between atoms: N_17  and  C_18 
REMARK    6  A    between atoms: C_25  and  O_26 
REMARK    7  A    between atoms: C_28  and  O_29 
ROOT
HETATM    1  C   UNL     1       5.250  -3.045   0.822  0.00  0.00     0.113 A 
HETATM    2  C   UNL     1       6.638  -3.208   1.008  0.00  0.00     0.042 A 
HETATM    3  C   UNL     1       7.242  -4.477   1.104  0.00  0.00     0.023 A 
HETATM    4  C   UNL     1       6.387  -5.588   1.071  0.00  0.00     0.078 A 
HETATM    5  C   UNL     1       5.005  -5.437   0.911  0.00  0.00     0.075 A 
HETATM    6  C   UNL     1       4.434  -4.169   0.771  0.00  0.00     0.091 A 
ENDROOT
BRANCH   3   7
HETATM    7  C   UNL     1       8.757  -4.511   1.239  0.00  0.00     0.277 C 
HETATM    8  N   UNL     1       9.176  -4.545   2.657  0.00  0.00    -0.156 NA
HETATM    9  N   UNL     1      10.064  -5.426   2.825  0.00  0.00    -0.093 NA
HETATM   10  C   UNL     1      10.281  -6.101   1.638  0.00  0.00     0.369 C 
HETATM   11  O   UNL     1      11.130  -6.966   1.475  0.00  0.00    -0.243 OA
HETATM   12  N   UNL     1       9.399  -5.646   0.679  0.00  0.00    -0.264 N 
BRANCH  12  13
HETATM   13  C   UNL     1       9.394  -6.023  -0.680  0.00  0.00     0.080 A 
HETATM   14  C   UNL     1       9.446  -7.388  -1.005  0.00  0.00     0.033 A 
HETATM   15  C   UNL     1       9.313  -7.803  -2.331  0.00  0.00     0.002 A 
HETATM   16  C   UNL     1       9.185  -6.864  -3.352  0.00  0.00     0.003 A 
HETATM   17  C   UNL     1       9.175  -5.505  -3.045  0.00  0.00     0.044 A 
HETATM   18  C   UNL     1       9.253  -5.097  -1.717  0.00  0.00     0.143 A 
HETATM   19  F   UNL     1       9.245  -3.781  -1.454  0.00  0.00    -0.204 F 
ENDBRANCH  12  13
ENDBRANCH   3   7
BRANCH   4  20
HETATM   20  O   UNL     1       6.806  -6.883   1.174  0.00  0.00    -0.360 OA
HETATM   21  H   UNL     1       7.773  -6.922   1.132  0.00  0.00     0.217 HD
ENDBRANCH   4  20
BRANCH   1  22
HETATM   22  S   UNL     1       4.675  -1.407   0.391  0.00  0.00     0.263 S 
HETATM   23  O   UNL     1       3.576  -1.517  -0.538  0.00  0.00    -0.200 OA
HETATM   24  O   UNL     1       5.861  -0.677  -0.028  0.00  0.00    -0.200 OA
BRANCH  22  25
HETATM   25  N   UNL     1       4.177  -0.698   1.867  0.00  0.00    -0.307 N 
HETATM   26  C   UNL     1       5.273  -0.524   2.856  0.00  0.00     0.163 C 
BRANCH  25  27
HETATM   27  C   UNL     1       2.859  -1.038   2.493  0.00  0.00     0.087 C 
HETATM   28  C   UNL     1       2.518  -0.001   3.582  0.00  0.00     0.032 C 
HETATM   29  C   UNL     1       1.685  -1.020   1.511  0.00  0.00     0.032 C 
ENDBRANCH  25  27
ENDBRANCH  22  25
ENDBRANCH   1  22
BRANCH   6  30
HETATM   30  O   UNL     1       3.087  -4.071   0.624  0.00  0.00    -0.359 OA
HETATM   31  H   UNL     1       2.722  -4.940   0.370  0.00  0.00     0.217 HD
ENDBRANCH   6  30
TORSDOF 7
