MODEL 1
REMARK VINA RESULT:    -7.400      0.000      0.000
REMARK INTER + INTRA:         -10.454
REMARK INTER:                  -9.611
REMARK INTRA:                  -0.843
REMARK UNBOUND:                -0.891
REMARK  5 active torsions:
REMARK  status: ('A' for Active; 'I' for Inactive)
REMARK    1  A    between atoms: N8_1  and  C24_2 
REMARK    2  A    between atoms: N8_1  and  C7_8 
REMARK    3  A    between atoms: C2_13  and  N1_14 
REMARK    4  A    between atoms: N1_14  and  C17_15 
REMARK    5  A    between atoms: C14_16  and  C13_19 
ROOT
ATOM      1  C17 FTA A   1       0.246  11.483  22.255  1.00  0.00     0.142 C 
ATOM      2  C14 FTA A   1       0.846  10.600  23.077  1.00  0.00     0.158 C 
ATOM      3  C18 FTA A   1       0.849  10.824  24.507  1.00  0.00     0.069 C 
ATOM      4  N21 FTA A   1       0.823  11.162  25.629  1.00  0.00    -0.197 NA
ENDROOT
BRANCH   2   5
ATOM      5  C13 FTA A   1       1.487   9.393  22.507  1.00  0.00     0.197 A 
ATOM      6  N15 FTA A   1       0.962   8.103  22.511  1.00  0.00    -0.093 NA
ATOM      7  N19 FTA A   1       1.900   7.268  21.920  1.00  0.00    -0.231 N 
ATOM      8  N20 FTA A   1       3.007   8.017  21.548  1.00  0.00    -0.017 NA
ATOM      9  H15 FTA A   1       1.792   6.253  21.779  1.00  0.00     0.200 HD
ATOM     10  N16 FTA A   1       2.748   9.337  21.902  1.00  0.00    -0.090 NA
ENDBRANCH   2   5
BRANCH   1  11
ATOM     11  N1  FTA A   1       0.944  11.988  21.220  1.00  0.00    -0.389 N 
ATOM     12  H11 FTA A   1       1.920  11.678  21.108  1.00  0.00     0.159 HD
BRANCH  11  13
ATOM     13  C2  FTA A   1       0.438  12.917  20.270  1.00  0.00     0.028 A 
ATOM     14  C4  FTA A   1      -0.899  13.306  20.255  1.00  0.00     0.031 A 
ATOM     15  C6  FTA A   1      -1.382  14.038  19.161  1.00  0.00     0.031 A 
ATOM     16  C7  FTA A   1      -0.567  14.387  18.087  1.00  0.00     0.032 A 
ATOM     17  C5  FTA A   1       0.765  14.015  18.129  1.00  0.00     0.031 A 
ATOM     18  C3  FTA A   1       1.259  13.277  19.198  1.00  0.00     0.031 A 
BRANCH  16  19
ATOM     19  N8  FTA A   1      -1.075  14.939  16.884  1.00  0.00    -0.356 N 
ATOM     20  H1  FTA A   1      -2.069  15.213  16.872  1.00  0.00     0.166 HD
BRANCH  19  21
ATOM     21  C24 FTA A   1      -0.324  15.148  15.687  1.00  0.00     0.032 A 
ATOM     22  C26 FTA A   1      -0.200  14.165  14.734  1.00  0.00     0.029 A 
ATOM     23  C28 FTA A   1       0.679  14.365  13.686  1.00  0.00     0.002 A 
ATOM     24  C30 FTA A   1       1.413  15.531  13.545  1.00  0.00     0.000 A 
ATOM     25  C29 FTA A   1       1.269  16.533  14.468  1.00  0.00     0.002 A 
ATOM     26  C27 FTA A   1       0.383  16.331  15.532  1.00  0.00     0.029 A 
ENDBRANCH  19  21
ENDBRANCH  16  19
ENDBRANCH  11  13
ENDBRANCH   1  11
TORSDOF 5
ENDMDL
MODEL 2
REMARK VINA RESULT:    -7.286      0.185      1.007
REMARK INTER + INTRA:         -10.307
REMARK INTER:                  -9.435
REMARK INTRA:                  -0.872
REMARK UNBOUND:                -0.891
REMARK  5 active torsions:
REMARK  status: ('A' for Active; 'I' for Inactive)
REMARK    1  A    between atoms: N8_1  and  C24_2 
REMARK    2  A    between atoms: N8_1  and  C7_8 
REMARK    3  A    between atoms: C2_13  and  N1_14 
REMARK    4  A    between atoms: N1_14  and  C17_15 
REMARK    5  A    between atoms: C14_16  and  C13_19 
ROOT
ATOM      1  C17 FTA A   1       0.266  11.510  22.297  1.00  0.00     0.142 C 
ATOM      2  C14 FTA A   1       0.845  10.611  23.118  1.00  0.00     0.158 C 
ATOM      3  C18 FTA A   1       0.841  10.826  24.549  1.00  0.00     0.069 C 
ATOM      4  N21 FTA A   1       0.813  11.157  25.674  1.00  0.00    -0.197 NA
ENDROOT
BRANCH   2   5
ATOM      5  C13 FTA A   1       1.469   9.397  22.545  1.00  0.00     0.197 A 
ATOM      6  N15 FTA A   1       0.931   8.112  22.557  1.00  0.00    -0.093 NA
ATOM      7  N19 FTA A   1       1.855   7.266  21.958  1.00  0.00    -0.231 N 
ATOM      8  N20 FTA A   1       2.966   8.004  21.575  1.00  0.00    -0.017 NA
ATOM      9  H15 FTA A   1       1.736   6.252  21.821  1.00  0.00     0.200 HD
ATOM     10  N16 FTA A   1       2.724   9.328  21.928  1.00  0.00    -0.090 NA
ENDBRANCH   2   5
BRANCH   1  11
ATOM     11  N1  FTA A   1       0.981  12.009  21.271  1.00  0.00    -0.389 N 
ATOM     12  H11 FTA A   1       1.971  11.731  21.200  1.00  0.00     0.159 HD
BRANCH  11  13
ATOM     13  C2  FTA A   1       0.474  12.891  20.277  1.00  0.00     0.028 A 
ATOM     14  C4  FTA A   1      -0.868  13.259  20.228  1.00  0.00     0.031 A 
ATOM     15  C6  FTA A   1      -1.345  13.938  19.099  1.00  0.00     0.031 A 
ATOM     16  C7  FTA A   1      -0.521  14.255  18.022  1.00  0.00     0.032 A 
ATOM     17  C5  FTA A   1       0.815  13.905  18.098  1.00  0.00     0.031 A 
ATOM     18  C3  FTA A   1       1.305  13.219  19.202  1.00  0.00     0.031 A 
BRANCH  16  19
ATOM     19  N8  FTA A   1      -1.020  14.750  16.790  1.00  0.00    -0.356 N 
ATOM     20  H1  FTA A   1      -2.042  14.852  16.701  1.00  0.00     0.166 HD
BRANCH  19  21
ATOM     21  C24 FTA A   1      -0.224  15.120  15.664  1.00  0.00     0.032 A 
ATOM     22  C26 FTA A   1       0.334  16.372  15.556  1.00  0.00     0.029 A 
ATOM     23  C28 FTA A   1       0.946  16.723  14.367  1.00  0.00     0.002 A 
ATOM     24  C30 FTA A   1       1.045  15.851  13.296  1.00  0.00     0.000 A 
ATOM     25  C29 FTA A   1       0.527  14.588  13.406  1.00  0.00     0.002 A 
ATOM     26  C27 FTA A   1      -0.097  14.231  14.607  1.00  0.00     0.029 A 
ENDBRANCH  19  21
ENDBRANCH  16  19
ENDBRANCH  11  13
ENDBRANCH   1  11
TORSDOF 5
ENDMDL
MODEL 3
REMARK VINA RESULT:    -7.248      2.285      4.445
REMARK INTER + INTRA:         -10.259
REMARK INTER:                  -9.241
REMARK INTRA:                  -1.017
REMARK UNBOUND:                -0.891
REMARK  5 active torsions:
REMARK  status: ('A' for Active; 'I' for Inactive)
REMARK    1  A    between atoms: N8_1  and  C24_2 
REMARK    2  A    between atoms: N8_1  and  C7_8 
REMARK    3  A    between atoms: C2_13  and  N1_14 
REMARK    4  A    between atoms: N1_14  and  C17_15 
REMARK    5  A    between atoms: C14_16  and  C13_19 
ROOT
ATOM      1  C17 FTA A   1       1.738   7.807  23.365  1.00  0.00     0.142 C 
ATOM      2  C14 FTA A   1       3.028   7.424  23.309  1.00  0.00     0.158 C 
ATOM      3  C18 FTA A   1       3.417   6.108  23.770  1.00  0.00     0.069 C 
ATOM      4  N21 FTA A   1       3.593   5.044  24.229  1.00  0.00    -0.197 NA
ENDROOT
BRANCH   2   5
ATOM      5  C13 FTA A   1       4.041   8.353  22.757  1.00  0.00     0.197 A 
ATOM      6  N15 FTA A   1       5.346   8.027  22.395  1.00  0.00    -0.093 NA
ATOM      7  N19 FTA A   1       5.966   9.195  21.971  1.00  0.00    -0.231 N 
ATOM      8  N20 FTA A   1       5.068  10.248  22.066  1.00  0.00    -0.017 NA
ATOM      9  H15 FTA A   1       6.939   9.268  21.639  1.00  0.00     0.200 HD
ATOM     10  N16 FTA A   1       3.870   9.726  22.543  1.00  0.00    -0.090 NA
ENDBRANCH   2   5
BRANCH   1  11
ATOM     11  N1  FTA A   1       1.429   8.967  23.977  1.00  0.00    -0.389 N 
ATOM     12  H11 FTA A   1       1.766   9.102  24.941  1.00  0.00     0.159 HD
BRANCH  11  13
ATOM     13  C2  FTA A   1       0.673  10.021  23.393  1.00  0.00     0.028 A 
ATOM     14  C4  FTA A   1      -0.094   9.834  22.245  1.00  0.00     0.031 A 
ATOM     15  C6  FTA A   1      -0.624  10.956  21.593  1.00  0.00     0.031 A 
ATOM     16  C7  FTA A   1      -0.407  12.252  22.053  1.00  0.00     0.032 A 
ATOM     17  C5  FTA A   1       0.337  12.418  23.208  1.00  0.00     0.031 A 
ATOM     18  C3  FTA A   1       0.882  11.320  23.862  1.00  0.00     0.031 A 
BRANCH  16  19
ATOM     19  N8  FTA A   1      -0.752  13.404  21.301  1.00  0.00    -0.356 N 
ATOM     20  H1  FTA A   1      -1.271  14.148  21.789  1.00  0.00     0.166 HD
BRANCH  19  21
ATOM     21  C24 FTA A   1      -0.439  13.617  19.925  1.00  0.00     0.032 A 
ATOM     22  C26 FTA A   1       0.840  13.464  19.445  1.00  0.00     0.029 A 
ATOM     23  C28 FTA A   1       1.111  13.851  18.146  1.00  0.00     0.002 A 
ATOM     24  C30 FTA A   1       0.136  14.356  17.303  1.00  0.00     0.000 A 
ATOM     25  C29 FTA A   1      -1.151  14.477  17.757  1.00  0.00     0.002 A 
ATOM     26  C27 FTA A   1      -1.427  14.090  19.073  1.00  0.00     0.029 A 
ENDBRANCH  19  21
ENDBRANCH  16  19
ENDBRANCH  11  13
ENDBRANCH   1  11
TORSDOF 5
ENDMDL
MODEL 4
REMARK VINA RESULT:    -7.119      2.716      8.700
REMARK INTER + INTRA:         -10.091
REMARK INTER:                  -9.058
REMARK INTRA:                  -1.034
REMARK UNBOUND:                -0.891
REMARK  5 active torsions:
REMARK  status: ('A' for Active; 'I' for Inactive)
REMARK    1  A    between atoms: N8_1  and  C24_2 
REMARK    2  A    between atoms: N8_1  and  C7_8 
REMARK    3  A    between atoms: C2_13  and  N1_14 
REMARK    4  A    between atoms: N1_14  and  C17_15 
REMARK    5  A    between atoms: C14_16  and  C13_19 
ROOT
ATOM      1  C17 FTA A   1       0.726  14.449  15.294  1.00  0.00     0.142 C 
ATOM      2  C14 FTA A   1      -0.075  14.711  14.242  1.00  0.00     0.158 C 
ATOM      3  C18 FTA A   1       0.490  15.185  12.998  1.00  0.00     0.069 C 
ATOM      4  N21 FTA A   1       1.077  15.615  12.078  1.00  0.00    -0.197 NA
ENDROOT
BRANCH   2   5
ATOM      5  C13 FTA A   1      -1.535  14.495  14.368  1.00  0.00     0.197 A 
ATOM      6  N15 FTA A   1      -2.447  15.365  14.962  1.00  0.00    -0.093 NA
ATOM      7  N19 FTA A   1      -3.696  14.761  14.907  1.00  0.00    -0.231 N 
ATOM      8  N20 FTA A   1      -3.578  13.524  14.290  1.00  0.00    -0.017 NA
ATOM      9  H15 FTA A   1      -4.572  15.166  15.268  1.00  0.00     0.200 HD
ATOM     10  N16 FTA A   1      -2.240  13.362  13.945  1.00  0.00    -0.090 NA
ENDBRANCH   2   5
BRANCH   1  11
ATOM     11  N1  FTA A   1       0.450  15.020  16.482  1.00  0.00    -0.389 N 
ATOM     12  H11 FTA A   1       0.487  16.049  16.535  1.00  0.00     0.159 HD
BRANCH  11  13
ATOM     13  C2  FTA A   1       0.110  14.313  17.668  1.00  0.00     0.028 A 
ATOM     14  C4  FTA A   1      -1.174  14.340  18.204  1.00  0.00     0.031 A 
ATOM     15  C6  FTA A   1      -1.386  13.818  19.487  1.00  0.00     0.031 A 
ATOM     16  C7  FTA A   1      -0.352  13.274  20.245  1.00  0.00     0.032 A 
ATOM     17  C5  FTA A   1       0.913  13.232  19.688  1.00  0.00     0.031 A 
ATOM     18  C3  FTA A   1       1.147  13.757  18.423  1.00  0.00     0.031 A 
BRANCH  16  19
ATOM     19  N8  FTA A   1      -0.498  12.934  21.614  1.00  0.00    -0.356 N 
ATOM     20  H1  FTA A   1      -1.173  13.483  22.168  1.00  0.00     0.166 HD
BRANCH  19  21
ATOM     21  C24 FTA A   1       0.212  11.895  22.289  1.00  0.00     0.032 A 
ATOM     22  C26 FTA A   1       1.090  12.169  23.311  1.00  0.00     0.029 A 
ATOM     23  C28 FTA A   1       1.872  11.142  23.804  1.00  0.00     0.002 A 
ATOM     24  C30 FTA A   1       1.781   9.845  23.329  1.00  0.00     0.000 A 
ATOM     25  C29 FTA A   1       0.883   9.552  22.337  1.00  0.00     0.002 A 
ATOM     26  C27 FTA A   1       0.092  10.590  21.833  1.00  0.00     0.029 A 
ENDBRANCH  19  21
ENDBRANCH  16  19
ENDBRANCH  11  13
ENDBRANCH   1  11
TORSDOF 5
ENDMDL
MODEL 5
REMARK VINA RESULT:    -7.099      1.146      2.914
REMARK INTER + INTRA:         -10.065
REMARK INTER:                  -9.122
REMARK INTRA:                  -0.944
REMARK UNBOUND:                -0.891
REMARK  5 active torsions:
REMARK  status: ('A' for Active; 'I' for Inactive)
REMARK    1  A    between atoms: N8_1  and  C24_2 
REMARK    2  A    between atoms: N8_1  and  C7_8 
REMARK    3  A    between atoms: C2_13  and  N1_14 
REMARK    4  A    between atoms: N1_14  and  C17_15 
REMARK    5  A    between atoms: C14_16  and  C13_19 
ROOT
ATOM      1  C17 FTA A   1       1.627  10.963  22.210  1.00  0.00     0.142 C 
ATOM      2  C14 FTA A   1       1.696  10.327  23.396  1.00  0.00     0.158 C 
ATOM      3  C18 FTA A   1       1.501   8.895  23.466  1.00  0.00     0.069 C 
ATOM      4  N21 FTA A   1       1.266   7.749  23.379  1.00  0.00    -0.197 NA
ENDROOT
BRANCH   2   5
ATOM      5  C13 FTA A   1       1.990  11.103  24.623  1.00  0.00     0.197 A 
ATOM      6  N15 FTA A   1       2.558  12.374  24.675  1.00  0.00    -0.093 NA
ATOM      7  N19 FTA A   1       2.702  12.712  26.014  1.00  0.00    -0.231 N 
ATOM      8  N20 FTA A   1       2.234  11.669  26.800  1.00  0.00    -0.017 NA
ATOM      9  H15 FTA A   1       3.094  13.597  26.368  1.00  0.00     0.200 HD
ATOM     10  N16 FTA A   1       1.782  10.675  25.939  1.00  0.00    -0.090 NA
ENDBRANCH   2   5
BRANCH   1  11
ATOM     11  N1  FTA A   1       0.804  12.022  22.086  1.00  0.00    -0.389 N 
ATOM     12  H11 FTA A   1       0.447  12.452  22.952  1.00  0.00     0.159 HD
BRANCH  11  13
ATOM     13  C2  FTA A   1       0.389  12.592  20.852  1.00  0.00     0.028 A 
ATOM     14  C4  FTA A   1       1.291  12.892  19.834  1.00  0.00     0.031 A 
ATOM     15  C6  FTA A   1       0.856  13.659  18.744  1.00  0.00     0.031 A 
ATOM     16  C7  FTA A   1      -0.450  14.133  18.647  1.00  0.00     0.032 A 
ATOM     17  C5  FTA A   1      -1.340  13.805  19.654  1.00  0.00     0.031 A 
ATOM     18  C3  FTA A   1      -0.925  13.057  20.749  1.00  0.00     0.031 A 
BRANCH  16  19
ATOM     19  N8  FTA A   1      -0.855  15.077  17.669  1.00  0.00    -0.356 N 
ATOM     20  H1  FTA A   1      -1.555  15.779  17.952  1.00  0.00     0.166 HD
BRANCH  19  21
ATOM     21  C24 FTA A   1      -0.374  15.135  16.326  1.00  0.00     0.032 A 
ATOM     22  C26 FTA A   1      -0.571  14.098  15.445  1.00  0.00     0.029 A 
ATOM     23  C28 FTA A   1       0.066  14.140  14.220  1.00  0.00     0.002 A 
ATOM     24  C30 FTA A   1       0.867  15.202  13.835  1.00  0.00     0.000 A 
ATOM     25  C29 FTA A   1       1.040  16.259  14.689  1.00  0.00     0.002 A 
ATOM     26  C27 FTA A   1       0.399  16.217  15.932  1.00  0.00     0.029 A 
ENDBRANCH  19  21
ENDBRANCH  16  19
ENDBRANCH  11  13
ENDBRANCH   1  11
TORSDOF 5
ENDMDL
MODEL 6
REMARK VINA RESULT:    -6.963      7.671     10.588
REMARK INTER + INTRA:          -9.890
REMARK INTER:                  -8.881
REMARK INTRA:                  -1.009
REMARK UNBOUND:                -0.891
REMARK  5 active torsions:
REMARK  status: ('A' for Active; 'I' for Inactive)
REMARK    1  A    between atoms: N8_1  and  C24_2 
REMARK    2  A    between atoms: N8_1  and  C7_8 
REMARK    3  A    between atoms: C2_13  and  N1_14 
REMARK    4  A    between atoms: N1_14  and  C17_15 
REMARK    5  A    between atoms: C14_16  and  C13_19 
ROOT
ATOM      1  C17 FTA A   1       8.153  11.681  11.709  1.00  0.00     0.142 C 
ATOM      2  C14 FTA A   1       8.070  11.421  10.389  1.00  0.00     0.158 C 
ATOM      3  C18 FTA A   1       8.730  12.285   9.435  1.00  0.00     0.069 C 
ATOM      4  N21 FTA A   1       9.263  13.098   8.780  1.00  0.00    -0.197 NA
ENDROOT
BRANCH   2   5
ATOM      5  C13 FTA A   1       7.311  10.236   9.927  1.00  0.00     0.197 A 
ATOM      6  N15 FTA A   1       6.004  10.234   9.443  1.00  0.00    -0.093 NA
ATOM      7  N19 FTA A   1       5.664   8.917   9.165  1.00  0.00    -0.231 N 
ATOM      8  N20 FTA A   1       6.738   8.094   9.472  1.00  0.00    -0.017 NA
ATOM      9  H15 FTA A   1       4.757   8.600   8.792  1.00  0.00     0.200 HD
ATOM     10  N16 FTA A   1       7.765   8.912   9.934  1.00  0.00    -0.090 NA
ENDBRANCH   2   5
BRANCH   1  11
ATOM     11  N1  FTA A   1       7.018  11.765  12.429  1.00  0.00    -0.389 N 
ATOM     12  H11 FTA A   1       6.785  10.972  13.046  1.00  0.00     0.159 HD
BRANCH  11  13
ATOM     13  C2  FTA A   1       6.116  12.864  12.404  1.00  0.00     0.028 A 
ATOM     14  C4  FTA A   1       6.367  14.044  13.100  1.00  0.00     0.031 A 
ATOM     15  C6  FTA A   1       5.342  14.992  13.222  1.00  0.00     0.031 A 
ATOM     16  C7  FTA A   1       4.078  14.791  12.673  1.00  0.00     0.032 A 
ATOM     17  C5  FTA A   1       3.853  13.624  11.964  1.00  0.00     0.031 A 
ATOM     18  C3  FTA A   1       4.852  12.666  11.843  1.00  0.00     0.031 A 
BRANCH  16  19
ATOM     19  N8  FTA A   1       2.972  15.631  12.960  1.00  0.00    -0.356 N 
ATOM     20  H1  FTA A   1       3.168  16.628  13.130  1.00  0.00     0.166 HD
BRANCH  19  21
ATOM     21  C24 FTA A   1       1.610  15.208  13.033  1.00  0.00     0.032 A 
ATOM     22  C26 FTA A   1       0.676  15.628  12.116  1.00  0.00     0.029 A 
ATOM     23  C28 FTA A   1      -0.654  15.325  12.340  1.00  0.00     0.002 A 
ATOM     24  C30 FTA A   1      -1.074  14.589  13.435  1.00  0.00     0.000 A 
ATOM     25  C29 FTA A   1      -0.149  14.133  14.335  1.00  0.00     0.002 A 
ATOM     26  C27 FTA A   1       1.198  14.441  14.113  1.00  0.00     0.029 A 
ENDBRANCH  19  21
ENDBRANCH  16  19
ENDBRANCH  11  13
ENDBRANCH   1  11
TORSDOF 5
ENDMDL
MODEL 7
REMARK VINA RESULT:    -6.949      2.527      8.663
REMARK INTER + INTRA:          -9.871
REMARK INTER:                  -8.852
REMARK INTRA:                  -1.019
REMARK UNBOUND:                -0.891
REMARK  5 active torsions:
REMARK  status: ('A' for Active; 'I' for Inactive)
REMARK    1  A    between atoms: N8_1  and  C24_2 
REMARK    2  A    between atoms: N8_1  and  C7_8 
REMARK    3  A    between atoms: C2_13  and  N1_14 
REMARK    4  A    between atoms: N1_14  and  C17_15 
REMARK    5  A    between atoms: C14_16  and  C13_19 
ROOT
ATOM      1  C17 FTA A   1      -1.241  15.176  15.788  1.00  0.00     0.142 C 
ATOM      2  C14 FTA A   1      -1.214  14.600  14.570  1.00  0.00     0.158 C 
ATOM      3  C18 FTA A   1      -2.309  13.758  14.139  1.00  0.00     0.069 C 
ATOM      4  N21 FTA A   1      -3.232  13.060  13.948  1.00  0.00    -0.197 NA
ENDROOT
BRANCH   2   5
ATOM      5  C13 FTA A   1      -0.063  14.849  13.672  1.00  0.00     0.197 A 
ATOM      6  N15 FTA A   1       1.246  14.418  13.875  1.00  0.00    -0.093 NA
ATOM      7  N19 FTA A   1       2.013  14.904  12.824  1.00  0.00    -0.231 N 
ATOM      8  N20 FTA A   1       1.202  15.634  11.968  1.00  0.00    -0.017 NA
ATOM      9  H15 FTA A   1       3.024  14.747  12.700  1.00  0.00     0.200 HD
ATOM     10  N16 FTA A   1      -0.088  15.592  12.486  1.00  0.00    -0.090 NA
ENDBRANCH   2   5
BRANCH   1  11
ATOM     11  N1  FTA A   1      -0.189  15.007  16.612  1.00  0.00    -0.389 N 
ATOM     12  H11 FTA A   1       0.695  15.470  16.357  1.00  0.00     0.159 HD
BRANCH  11  13
ATOM     13  C2  FTA A   1      -0.206  14.237  17.807  1.00  0.00     0.028 A 
ATOM     14  C4  FTA A   1      -1.341  14.139  18.609  1.00  0.00     0.031 A 
ATOM     15  C6  FTA A   1      -1.226  13.561  19.881  1.00  0.00     0.031 A 
ATOM     16  C7  FTA A   1      -0.013  13.084  20.371  1.00  0.00     0.032 A 
ATOM     17  C5  FTA A   1       1.100  13.167  19.552  1.00  0.00     0.031 A 
ATOM     18  C3  FTA A   1       1.010  13.748  18.293  1.00  0.00     0.031 A 
BRANCH  16  19
ATOM     19  N8  FTA A   1       0.171  12.691  21.721  1.00  0.00    -0.356 N 
ATOM     20  H1  FTA A   1      -0.254  13.285  22.448  1.00  0.00     0.166 HD
BRANCH  19  21
ATOM     21  C24 FTA A   1       0.896  11.541  22.156  1.00  0.00     0.032 A 
ATOM     22  C26 FTA A   1       2.111  11.652  22.789  1.00  0.00     0.029 A 
ATOM     23  C28 FTA A   1       2.840  10.503  23.029  1.00  0.00     0.002 A 
ATOM     24  C30 FTA A   1       2.378   9.244  22.684  1.00  0.00     0.000 A 
ATOM     25  C29 FTA A   1       1.152   9.117  22.087  1.00  0.00     0.002 A 
ATOM     26  C27 FTA A   1       0.413  10.279  21.839  1.00  0.00     0.029 A 
ENDBRANCH  19  21
ENDBRANCH  16  19
ENDBRANCH  11  13
ENDBRANCH   1  11
TORSDOF 5
ENDMDL
MODEL 8
REMARK VINA RESULT:    -6.943      7.727     10.777
REMARK INTER + INTRA:          -9.864
REMARK INTER:                  -8.815
REMARK INTRA:                  -1.049
REMARK UNBOUND:                -0.891
REMARK  5 active torsions:
REMARK  status: ('A' for Active; 'I' for Inactive)
REMARK    1  A    between atoms: N8_1  and  C24_2 
REMARK    2  A    between atoms: N8_1  and  C7_8 
REMARK    3  A    between atoms: C2_13  and  N1_14 
REMARK    4  A    between atoms: N1_14  and  C17_15 
REMARK    5  A    between atoms: C14_16  and  C13_19 
ROOT
ATOM      1  C17 FTA A   1       7.695  12.025  10.873  1.00  0.00     0.142 C 
ATOM      2  C14 FTA A   1       8.223  10.908  10.335  1.00  0.00     0.158 C 
ATOM      3  C18 FTA A   1       9.659  10.757  10.235  1.00  0.00     0.069 C 
ATOM      4  N21 FTA A   1      10.829  10.797  10.166  1.00  0.00    -0.197 NA
ENDROOT
BRANCH   2   5
ATOM      5  C13 FTA A   1       7.322   9.832   9.862  1.00  0.00     0.197 A 
ATOM      6  N15 FTA A   1       6.054  10.003   9.311  1.00  0.00    -0.093 NA
ATOM      7  N19 FTA A   1       5.539   8.741   9.048  1.00  0.00    -0.231 N 
ATOM      8  N20 FTA A   1       6.466   7.782   9.429  1.00  0.00    -0.017 NA
ATOM      9  H15 FTA A   1       4.614   8.547   8.635  1.00  0.00     0.200 HD
ATOM     10  N16 FTA A   1       7.577   8.457   9.924  1.00  0.00    -0.090 NA
ENDBRANCH   2   5
BRANCH   1  11
ATOM     11  N1  FTA A   1       6.768  12.709  10.175  1.00  0.00    -0.389 N 
ATOM     12  H11 FTA A   1       6.887  12.765   9.153  1.00  0.00     0.159 HD
BRANCH  11  13
ATOM     13  C2  FTA A   1       5.639  13.361  10.740  1.00  0.00     0.028 A 
ATOM     14  C4  FTA A   1       5.374  14.710  10.520  1.00  0.00     0.031 A 
ATOM     15  C6  FTA A   1       4.385  15.343  11.285  1.00  0.00     0.031 A 
ATOM     16  C7  FTA A   1       3.658  14.666  12.261  1.00  0.00     0.032 A 
ATOM     17  C5  FTA A   1       3.915  13.319  12.450  1.00  0.00     0.031 A 
ATOM     18  C3  FTA A   1       4.901  12.677  11.711  1.00  0.00     0.031 A 
BRANCH  16  19
ATOM     19  N8  FTA A   1       2.808  15.326  13.185  1.00  0.00    -0.356 N 
ATOM     20  H1  FTA A   1       3.241  16.012  13.819  1.00  0.00     0.166 HD
BRANCH  19  21
ATOM     21  C24 FTA A   1       1.401  15.118  13.307  1.00  0.00     0.032 A 
ATOM     22  C26 FTA A   1       0.868  14.392  14.346  1.00  0.00     0.029 A 
ATOM     23  C28 FTA A   1      -0.479  14.081  14.314  1.00  0.00     0.002 A 
ATOM     24  C30 FTA A   1      -1.314  14.500  13.293  1.00  0.00     0.000 A 
ATOM     25  C29 FTA A   1      -0.803  15.256  12.272  1.00  0.00     0.002 A 
ATOM     26  C27 FTA A   1       0.561  15.570  12.299  1.00  0.00     0.029 A 
ENDBRANCH  19  21
ENDBRANCH  16  19
ENDBRANCH  11  13
ENDBRANCH   1  11
TORSDOF 5
ENDMDL
MODEL 9
REMARK VINA RESULT:    -6.878      1.606      2.442
REMARK INTER + INTRA:          -9.780
REMARK INTER:                  -8.889
REMARK INTRA:                  -0.891
REMARK UNBOUND:                -0.891
REMARK  5 active torsions:
REMARK  status: ('A' for Active; 'I' for Inactive)
REMARK    1  A    between atoms: N8_1  and  C24_2 
REMARK    2  A    between atoms: N8_1  and  C7_8 
REMARK    3  A    between atoms: C2_13  and  N1_14 
REMARK    4  A    between atoms: N1_14  and  C17_15 
REMARK    5  A    between atoms: C14_16  and  C13_19 
ROOT
ATOM      1  C17 FTA A   1       0.767  10.970  22.181  1.00  0.00     0.142 C 
ATOM      2  C14 FTA A   1       1.845  10.541  22.867  1.00  0.00     0.158 C 
ATOM      3  C18 FTA A   1       1.675   9.760  24.073  1.00  0.00     0.069 C 
ATOM      4  N21 FTA A   1       1.388   9.190  25.056  1.00  0.00    -0.197 NA
ENDROOT
BRANCH   2   5
ATOM      5  C13 FTA A   1       3.201  10.863  22.367  1.00  0.00     0.197 A 
ATOM      6  N15 FTA A   1       4.285   9.989  22.311  1.00  0.00    -0.093 NA
ATOM      7  N19 FTA A   1       5.372  10.703  21.823  1.00  0.00    -0.231 N 
ATOM      8  N20 FTA A   1       4.983  12.012  21.577  1.00  0.00    -0.017 NA
ATOM      9  H15 FTA A   1       6.317  10.322  21.669  1.00  0.00     0.200 HD
ATOM     10  N16 FTA A   1       3.634  12.110  21.903  1.00  0.00    -0.090 NA
ENDBRANCH   2   5
BRANCH   1  11
ATOM     11  N1  FTA A   1       0.662  12.280  21.884  1.00  0.00    -0.389 N 
ATOM     12  H11 FTA A   1       0.851  12.955  22.639  1.00  0.00     0.159 HD
BRANCH  11  13
ATOM     13  C2  FTA A   1       0.313  12.801  20.608  1.00  0.00     0.028 A 
ATOM     14  C4  FTA A   1       1.264  13.036  19.618  1.00  0.00     0.031 A 
ATOM     15  C6  FTA A   1       0.892  13.761  18.477  1.00  0.00     0.031 A 
ATOM     16  C7  FTA A   1      -0.397  14.256  18.302  1.00  0.00     0.032 A 
ATOM     17  C5  FTA A   1      -1.337  13.992  19.283  1.00  0.00     0.031 A 
ATOM     18  C3  FTA A   1      -0.985  13.287  20.428  1.00  0.00     0.031 A 
BRANCH  16  19
ATOM     19  N8  FTA A   1      -0.740  15.162  17.267  1.00  0.00    -0.356 N 
ATOM     20  H1  FTA A   1      -0.962  16.130  17.541  1.00  0.00     0.166 HD
BRANCH  19  21
ATOM     21  C24 FTA A   1      -0.802  14.844  15.876  1.00  0.00     0.032 A 
ATOM     22  C26 FTA A   1       0.336  14.716  15.115  1.00  0.00     0.029 A 
ATOM     23  C28 FTA A   1       0.204  14.579  13.746  1.00  0.00     0.002 A 
ATOM     24  C30 FTA A   1      -1.030  14.534  13.119  1.00  0.00     0.000 A 
ATOM     25  C29 FTA A   1      -2.171  14.622  13.871  1.00  0.00     0.002 A 
ATOM     26  C27 FTA A   1      -2.041  14.764  15.257  1.00  0.00     0.029 A 
ENDBRANCH  19  21
ENDBRANCH  16  19
ENDBRANCH  11  13
ENDBRANCH   1  11
TORSDOF 5
ENDMDL
