MODEL 1
REMARK VINA RESULT:    -9.418      0.000      0.000
REMARK INTER + INTRA:         -14.924
REMARK INTER:                 -12.125
REMARK INTRA:                  -2.798
REMARK UNBOUND:                -2.202
REMARK  7 active torsions:
REMARK  status: ('A' for Active; 'I' for Inactive)
REMARK    1  A    between atoms: O_1  and  C_2 
REMARK    2  A    between atoms: C_4  and  O_5 
REMARK    3  A    between atoms: C_6  and  C_17 
REMARK    4  A    between atoms: C_8  and  C_9 
REMARK    5  A    between atoms: C_9  and  C_10 
REMARK    6  A    between atoms: C_10  and  C_11 
REMARK    7  A    between atoms: N_23  and  C_24 
ROOT
HETATM    1  C   UNL     1      -3.336  16.155  20.523  0.00  0.00     0.074 C 
HETATM    2  C   UNL     1      -4.413  15.377  20.942  0.00  0.00     0.074 C 
HETATM    3  C   UNL     1      -4.182  14.194  21.650  0.00  0.00     0.082 C 
HETATM    4  C   UNL     1      -2.875  13.734  21.881  0.00  0.00     0.046 C 
HETATM    5  C   UNL     1      -1.819  14.479  21.327  0.00  0.00     0.028 C 
HETATM    6  C   UNL     1      -2.020  15.751  20.755  0.00  0.00    -0.024 C 
ENDROOT
BRANCH   4   7
HETATM    7  C   UNL     1      -2.630  12.500  22.699  0.00  0.00     0.172 A 
HETATM    8  N   UNL     1      -3.223  11.364  22.433  0.00  0.00    -0.151 NA
HETATM    9  N   UNL     1      -2.731  10.480  23.341  0.00  0.00    -0.226 N 
HETATM   10  H   UNL     1      -3.090   9.541  23.440  0.00  0.00     0.194 HD
HETATM   11  C   UNL     1      -1.819  11.094  24.183  0.00  0.00     0.349 A 
HETATM   12  O   UNL     1      -1.265  10.557  25.129  0.00  0.00    -0.245 OA
HETATM   13  N   UNL     1      -1.745  12.404  23.751  0.00  0.00    -0.241 N 
BRANCH  13  14
HETATM   14  C   UNL     1      -0.968  13.368  24.418  0.00  0.00     0.084 A 
HETATM   15  C   UNL     1       0.418  13.386  24.196  0.00  0.00     0.033 A 
HETATM   16  C   UNL     1       1.209  14.406  24.730  0.00  0.00     0.002 A 
HETATM   17  C   UNL     1       0.629  15.395  25.525  0.00  0.00     0.003 A 
HETATM   18  C   UNL     1      -0.735  15.348  25.805  0.00  0.00     0.044 A 
HETATM   19  C   UNL     1      -1.521  14.334  25.255  0.00  0.00     0.143 A 
HETATM   20  F   UNL     1      -2.830  14.311  25.552  0.00  0.00    -0.204 F 
ENDBRANCH  13  14
ENDBRANCH   4   7
BRANCH   3  21
HETATM   21  O   UNL     1      -5.269  13.512  22.125  0.00  0.00    -0.360 OA
HETATM   22  H   UNL     1      -5.871  13.280  21.402  0.00  0.00     0.217 HD
ENDBRANCH   3  21
BRANCH   6  23
HETATM   23  C   UNL     1      -0.794  16.605  20.463  0.00  0.00     0.046 C 
BRANCH  23  24
HETATM   24  C   UNL     1       0.158  16.808  21.653  0.00  0.00     0.043 C 
BRANCH  24  25
HETATM   25  C   UNL     1       1.474  16.078  21.519  0.00  0.00    -0.058 A 
HETATM   26  C   UNL     1       2.620  16.570  22.158  0.00  0.00     0.007 A 
HETATM   27  C   UNL     1       3.823  15.864  22.098  0.00  0.00     0.001 A 
HETATM   28  C   UNL     1       3.893  14.666  21.391  0.00  0.00     0.000 A 
HETATM   29  C   UNL     1       2.763  14.175  20.739  0.00  0.00     0.001 A 
HETATM   30  C   UNL     1       1.558  14.880  20.799  0.00  0.00     0.007 A 
ENDBRANCH  24  25
ENDBRANCH  23  24
ENDBRANCH   6  23
BRANCH   1  31
HETATM   31  O   UNL     1      -3.583  17.329  19.875  0.00  0.00    -0.360 OA
HETATM   32  H   UNL     1      -2.873  17.505  19.236  0.00  0.00     0.217 HD
ENDBRANCH   1  31
TORSDOF 7
ENDMDL
MODEL 2
REMARK VINA RESULT:    -9.326      0.900      1.253
REMARK INTER + INTRA:         -14.799
REMARK INTER:                 -11.962
REMARK INTRA:                  -2.837
REMARK UNBOUND:                -2.202
REMARK  7 active torsions:
REMARK  status: ('A' for Active; 'I' for Inactive)
REMARK    1  A    between atoms: O_1  and  C_2 
REMARK    2  A    between atoms: C_4  and  O_5 
REMARK    3  A    between atoms: C_6  and  C_17 
REMARK    4  A    between atoms: C_8  and  C_9 
REMARK    5  A    between atoms: C_9  and  C_10 
REMARK    6  A    between atoms: C_10  and  C_11 
REMARK    7  A    between atoms: N_23  and  C_24 
ROOT
HETATM    1  C   UNL     1      -3.436  16.164  20.461  0.00  0.00     0.074 C 
HETATM    2  C   UNL     1      -4.477  15.356  20.911  0.00  0.00     0.074 C 
HETATM    3  C   UNL     1      -4.193  14.182  21.614  0.00  0.00     0.082 C 
HETATM    4  C   UNL     1      -2.867  13.761  21.810  0.00  0.00     0.046 C 
HETATM    5  C   UNL     1      -1.849  14.535  21.226  0.00  0.00     0.028 C 
HETATM    6  C   UNL     1      -2.103  15.800  20.657  0.00  0.00    -0.024 C 
ENDROOT
BRANCH   4   7
HETATM    7  C   UNL     1      -2.563  12.537  22.622  0.00  0.00     0.172 A 
HETATM    8  N   UNL     1      -3.033  11.358  22.302  0.00  0.00    -0.151 NA
HETATM    9  N   UNL     1      -2.522  10.503  23.226  0.00  0.00    -0.226 N 
HETATM   10  H   UNL     1      -2.800   9.533  23.287  0.00  0.00     0.194 HD
HETATM   11  C   UNL     1      -1.724  11.178  24.135  0.00  0.00     0.349 A 
HETATM   12  O   UNL     1      -1.184  10.673  25.106  0.00  0.00    -0.245 OA
HETATM   13  N   UNL     1      -1.741  12.498  23.728  0.00  0.00    -0.241 N 
BRANCH  13  14
HETATM   14  C   UNL     1      -1.098  13.513  24.459  0.00  0.00     0.084 A 
HETATM   15  C   UNL     1      -1.795  14.129  25.510  0.00  0.00     0.033 A 
HETATM   16  C   UNL     1      -1.152  15.044  26.348  0.00  0.00     0.002 A 
HETATM   17  C   UNL     1       0.181  15.383  26.118  0.00  0.00     0.003 A 
HETATM   18  C   UNL     1       0.862  14.825  25.038  0.00  0.00     0.044 A 
HETATM   19  C   UNL     1       0.217  13.900  24.215  0.00  0.00     0.143 A 
HETATM   20  F   UNL     1       0.898  13.389  23.176  0.00  0.00    -0.204 F 
ENDBRANCH  13  14
ENDBRANCH   4   7
BRANCH   3  21
HETATM   21  O   UNL     1      -5.245  13.469  22.120  0.00  0.00    -0.360 OA
HETATM   22  H   UNL     1      -6.038  14.024  22.179  0.00  0.00     0.217 HD
ENDBRANCH   3  21
BRANCH   6  23
HETATM   23  C   UNL     1      -0.911  16.689  20.330  0.00  0.00     0.046 C 
BRANCH  23  24
HETATM   24  C   UNL     1       0.024  16.988  21.514  0.00  0.00     0.043 C 
BRANCH  24  25
HETATM   25  C   UNL     1       1.343  16.254  21.458  0.00  0.00    -0.058 A 
HETATM   26  C   UNL     1       2.358  16.558  22.375  0.00  0.00     0.007 A 
HETATM   27  C   UNL     1       3.553  15.836  22.375  0.00  0.00     0.001 A 
HETATM   28  C   UNL     1       3.746  14.809  21.453  0.00  0.00     0.000 A 
HETATM   29  C   UNL     1       2.749  14.508  20.526  0.00  0.00     0.001 A 
HETATM   30  C   UNL     1       1.553  15.230  20.526  0.00  0.00     0.007 A 
ENDBRANCH  24  25
ENDBRANCH  23  24
ENDBRANCH   6  23
BRANCH   1  31
HETATM   31  O   UNL     1      -3.735  17.329  19.818  0.00  0.00    -0.360 OA
HETATM   32  H   UNL     1      -3.269  17.361  18.967  0.00  0.00     0.217 HD
ENDBRANCH   1  31
TORSDOF 7
ENDMDL
MODEL 3
REMARK VINA RESULT:    -9.135      1.574      1.862
REMARK INTER + INTRA:         -14.542
REMARK INTER:                 -11.899
REMARK INTRA:                  -2.643
REMARK UNBOUND:                -2.202
REMARK  7 active torsions:
REMARK  status: ('A' for Active; 'I' for Inactive)
REMARK    1  A    between atoms: O_1  and  C_2 
REMARK    2  A    between atoms: C_4  and  O_5 
REMARK    3  A    between atoms: C_6  and  C_17 
REMARK    4  A    between atoms: C_8  and  C_9 
REMARK    5  A    between atoms: C_9  and  C_10 
REMARK    6  A    between atoms: C_10  and  C_11 
REMARK    7  A    between atoms: N_23  and  C_24 
ROOT
HETATM    1  C   UNL     1      -3.113  15.816  20.279  0.00  0.00     0.074 C 
HETATM    2  C   UNL     1      -4.181  14.986  20.612  0.00  0.00     0.074 C 
HETATM    3  C   UNL     1      -4.208  14.354  21.859  0.00  0.00     0.082 C 
HETATM    4  C   UNL     1      -3.135  14.481  22.756  0.00  0.00     0.046 C 
HETATM    5  C   UNL     1      -2.018  15.219  22.329  0.00  0.00     0.028 C 
HETATM    6  C   UNL     1      -2.037  15.993  21.151  0.00  0.00    -0.024 C 
ENDROOT
BRANCH   4   7
HETATM    7  C   UNL     1      -3.198  13.857  24.119  0.00  0.00     0.172 A 
HETATM    8  N   UNL     1      -4.336  13.557  24.692  0.00  0.00    -0.151 NA
HETATM    9  N   UNL     1      -4.003  12.980  25.876  0.00  0.00    -0.226 N 
HETATM   10  H   UNL     1      -4.687  12.740  26.580  0.00  0.00     0.194 HD
HETATM   11  C   UNL     1      -2.627  12.931  26.031  0.00  0.00     0.349 A 
HETATM   12  O   UNL     1      -2.046  12.520  27.023  0.00  0.00    -0.245 OA
HETATM   13  N   UNL     1      -2.108  13.488  24.878  0.00  0.00    -0.241 N 
BRANCH  13  14
HETATM   14  C   UNL     1      -0.727  13.684  24.700  0.00  0.00     0.084 A 
HETATM   15  C   UNL     1      -0.144  14.856  25.204  0.00  0.00     0.033 A 
HETATM   16  C   UNL     1       1.242  15.031  25.170  0.00  0.00     0.002 A 
HETATM   17  C   UNL     1       2.054  14.054  24.594  0.00  0.00     0.003 A 
HETATM   18  C   UNL     1       1.478  12.917  24.033  0.00  0.00     0.044 A 
HETATM   19  C   UNL     1       0.094  12.742  24.084  0.00  0.00     0.143 A 
HETATM   20  F   UNL     1      -0.430  11.640  23.525  0.00  0.00    -0.204 F 
ENDBRANCH  13  14
ENDBRANCH   4   7
BRANCH   3  21
HETATM   21  O   UNL     1      -5.321  13.626  22.181  0.00  0.00    -0.360 OA
HETATM   22  H   UNL     1      -6.120  14.045  21.826  0.00  0.00     0.217 HD
ENDBRANCH   3  21
BRANCH   6  23
HETATM   23  C   UNL     1      -0.906  16.989  20.931  0.00  0.00     0.046 C 
BRANCH  23  24
HETATM   24  C   UNL     1       0.167  17.010  22.032  0.00  0.00     0.043 C 
BRANCH  24  25
HETATM   25  C   UNL     1       1.406  16.212  21.699  0.00  0.00    -0.058 A 
HETATM   26  C   UNL     1       2.666  16.658  22.120  0.00  0.00     0.007 A 
HETATM   27  C   UNL     1       3.807  15.892  21.878  0.00  0.00     0.001 A 
HETATM   28  C   UNL     1       3.699  14.676  21.205  0.00  0.00     0.000 A 
HETATM   29  C   UNL     1       2.453  14.230  20.768  0.00  0.00     0.001 A 
HETATM   30  C   UNL     1       1.311  14.996  21.010  0.00  0.00     0.007 A 
ENDBRANCH  24  25
ENDBRANCH  23  24
ENDBRANCH   6  23
BRANCH   1  31
HETATM   31  O   UNL     1      -3.126  16.460  19.077  0.00  0.00    -0.360 OA
HETATM   32  H   UNL     1      -2.215  16.635  18.790  0.00  0.00     0.217 HD
ENDBRANCH   1  31
TORSDOF 7
ENDMDL
MODEL 4
REMARK VINA RESULT:    -9.081      2.289      4.339
REMARK INTER + INTRA:         -14.469
REMARK INTER:                 -12.020
REMARK INTRA:                  -2.449
REMARK UNBOUND:                -2.202
REMARK  7 active torsions:
REMARK  status: ('A' for Active; 'I' for Inactive)
REMARK    1  A    between atoms: O_1  and  C_2 
REMARK    2  A    between atoms: C_4  and  O_5 
REMARK    3  A    between atoms: C_6  and  C_17 
REMARK    4  A    between atoms: C_8  and  C_9 
REMARK    5  A    between atoms: C_9  and  C_10 
REMARK    6  A    between atoms: C_10  and  C_11 
REMARK    7  A    between atoms: N_23  and  C_24 
ROOT
HETATM    1  C   UNL     1       1.848  13.443  20.890  0.00  0.00     0.074 C 
HETATM    2  C   UNL     1       1.127  12.473  20.197  0.00  0.00     0.074 C 
HETATM    3  C   UNL     1       0.024  11.863  20.800  0.00  0.00     0.082 C 
HETATM    4  C   UNL     1      -0.326  12.155  22.129  0.00  0.00     0.046 C 
HETATM    5  C   UNL     1       0.506  13.040  22.838  0.00  0.00     0.028 C 
HETATM    6  C   UNL     1       1.520  13.785  22.203  0.00  0.00    -0.024 C 
ENDROOT
BRANCH   4   7
HETATM    7  C   UNL     1      -1.550  11.549  22.750  0.00  0.00     0.172 A 
HETATM    8  N   UNL     1      -1.497  10.442  23.447  0.00  0.00    -0.151 NA
HETATM    9  N   UNL     1      -2.768  10.228  23.879  0.00  0.00    -0.226 N 
HETATM   10  H   UNL     1      -3.048   9.383  24.358  0.00  0.00     0.194 HD
HETATM   11  C   UNL     1      -3.616  11.227  23.432  0.00  0.00     0.349 A 
HETATM   12  O   UNL     1      -4.822  11.260  23.618  0.00  0.00    -0.245 OA
HETATM   13  N   UNL     1      -2.816  12.093  22.712  0.00  0.00    -0.241 N 
BRANCH  13  14
HETATM   14  C   UNL     1      -3.343  13.204  22.030  0.00  0.00     0.084 A 
HETATM   15  C   UNL     1      -3.339  13.196  20.627  0.00  0.00     0.033 A 
HETATM   16  C   UNL     1      -3.972  14.214  19.909  0.00  0.00     0.002 A 
HETATM   17  C   UNL     1      -4.579  15.271  20.587  0.00  0.00     0.003 A 
HETATM   18  C   UNL     1      -4.531  15.322  21.978  0.00  0.00     0.044 A 
HETATM   19  C   UNL     1      -3.909  14.293  22.688  0.00  0.00     0.143 A 
HETATM   20  F   UNL     1      -3.871  14.376  24.028  0.00  0.00    -0.204 F 
ENDBRANCH  13  14
ENDBRANCH   4   7
BRANCH   3  21
HETATM   21  O   UNL     1      -0.711  10.987  20.049  0.00  0.00    -0.360 OA
HETATM   22  H   UNL     1      -0.543  11.120  19.104  0.00  0.00     0.217 HD
ENDBRANCH   3  21
BRANCH   6  23
HETATM   23  C   UNL     1       2.157  14.930  22.978  0.00  0.00     0.046 C 
BRANCH  23  24
HETATM   24  C   UNL     1       1.267  16.170  23.161  0.00  0.00     0.043 C 
BRANCH  24  25
HETATM   25  C   UNL     1       0.550  16.603  21.904  0.00  0.00    -0.058 A 
HETATM   26  C   UNL     1       1.282  16.995  20.775  0.00  0.00     0.007 A 
HETATM   27  C   UNL     1       0.629  17.329  19.588  0.00  0.00     0.001 A 
HETATM   28  C   UNL     1      -0.762  17.283  19.521  0.00  0.00     0.000 A 
HETATM   29  C   UNL     1      -1.501  16.910  20.643  0.00  0.00     0.001 A 
HETATM   30  C   UNL     1      -0.849  16.575  21.831  0.00  0.00     0.007 A 
ENDBRANCH  24  25
ENDBRANCH  23  24
ENDBRANCH   6  23
BRANCH   1  31
HETATM   31  O   UNL     1       2.893  14.060  20.267  0.00  0.00    -0.360 OA
HETATM   32  H   UNL     1       3.311  14.688  20.878  0.00  0.00     0.217 HD
ENDBRANCH   1  31
TORSDOF 7
ENDMDL
MODEL 5
REMARK VINA RESULT:    -8.658      1.853      2.494
REMARK INTER + INTRA:         -13.897
REMARK INTER:                 -11.579
REMARK INTRA:                  -2.318
REMARK UNBOUND:                -2.202
REMARK  7 active torsions:
REMARK  status: ('A' for Active; 'I' for Inactive)
REMARK    1  A    between atoms: O_1  and  C_2 
REMARK    2  A    between atoms: C_4  and  O_5 
REMARK    3  A    between atoms: C_6  and  C_17 
REMARK    4  A    between atoms: C_8  and  C_9 
REMARK    5  A    between atoms: C_9  and  C_10 
REMARK    6  A    between atoms: C_10  and  C_11 
REMARK    7  A    between atoms: N_23  and  C_24 
ROOT
HETATM    1  C   UNL     1      -2.759  16.110  20.546  0.00  0.00     0.074 C 
HETATM    2  C   UNL     1      -3.954  15.396  20.594  0.00  0.00     0.074 C 
HETATM    3  C   UNL     1      -4.233  14.579  21.693  0.00  0.00     0.082 C 
HETATM    4  C   UNL     1      -3.291  14.403  22.719  0.00  0.00     0.046 C 
HETATM    5  C   UNL     1      -2.044  15.035  22.569  0.00  0.00     0.028 C 
HETATM    6  C   UNL     1      -1.805  15.987  21.557  0.00  0.00    -0.024 C 
ENDROOT
BRANCH   4   7
HETATM    7  C   UNL     1      -3.620  13.579  23.929  0.00  0.00     0.172 A 
HETATM    8  N   UNL     1      -4.717  13.765  24.617  0.00  0.00    -0.151 NA
HETATM    9  N   UNL     1      -4.693  12.824  25.596  0.00  0.00    -0.226 N 
HETATM   10  H   UNL     1      -5.371  12.796  26.346  0.00  0.00     0.194 HD
HETATM   11  C   UNL     1      -3.551  12.046  25.505  0.00  0.00     0.349 A 
HETATM   12  O   UNL     1      -3.238  11.163  26.288  0.00  0.00    -0.245 OA
HETATM   13  N   UNL     1      -2.864  12.530  24.409  0.00  0.00    -0.241 N 
BRANCH  13  14
HETATM   14  C   UNL     1      -1.600  12.035  24.041  0.00  0.00     0.084 A 
HETATM   15  C   UNL     1      -0.466  12.526  24.708  0.00  0.00     0.033 A 
HETATM   16  C   UNL     1       0.793  11.967  24.471  0.00  0.00     0.002 A 
HETATM   17  C   UNL     1       0.936  10.942  23.537  0.00  0.00     0.003 A 
HETATM   18  C   UNL     1      -0.173  10.493  22.823  0.00  0.00     0.044 A 
HETATM   19  C   UNL     1      -1.430  11.046  23.076  0.00  0.00     0.143 A 
HETATM   20  F   UNL     1      -2.477  10.599  22.365  0.00  0.00    -0.204 F 
ENDBRANCH  13  14
ENDBRANCH   4   7
BRANCH   3  21
HETATM   21  O   UNL     1      -5.458  13.972  21.743  0.00  0.00    -0.360 OA
HETATM   22  H   UNL     1      -6.077  14.492  22.278  0.00  0.00     0.217 HD
ENDBRANCH   3  21
BRANCH   6  23
HETATM   23  C   UNL     1      -0.544  16.836  21.658  0.00  0.00     0.046 C 
BRANCH  23  24
HETATM   24  C   UNL     1       0.376  16.499  22.844  0.00  0.00     0.043 C 
BRANCH  24  25
HETATM   25  C   UNL     1       1.601  15.701  22.465  0.00  0.00    -0.058 A 
HETATM   26  C   UNL     1       2.024  15.651  21.129  0.00  0.00     0.007 A 
HETATM   27  C   UNL     1       3.194  14.975  20.781  0.00  0.00     0.001 A 
HETATM   28  C   UNL     1       3.947  14.336  21.763  0.00  0.00     0.000 A 
HETATM   29  C   UNL     1       3.528  14.366  23.093  0.00  0.00     0.001 A 
HETATM   30  C   UNL     1       2.357  15.043  23.442  0.00  0.00     0.007 A 
ENDBRANCH  24  25
ENDBRANCH  23  24
ENDBRANCH   6  23
BRANCH   1  31
HETATM   31  O   UNL     1      -2.526  16.938  19.488  0.00  0.00    -0.360 OA
HETATM   32  H   UNL     1      -1.769  17.514  19.684  0.00  0.00     0.217 HD
ENDBRANCH   1  31
TORSDOF 7
ENDMDL
MODEL 6
REMARK VINA RESULT:    -8.625      2.661      4.753
REMARK INTER + INTRA:         -13.853
REMARK INTER:                 -12.210
REMARK INTRA:                  -1.643
REMARK UNBOUND:                -2.202
REMARK  7 active torsions:
REMARK  status: ('A' for Active; 'I' for Inactive)
REMARK    1  A    between atoms: O_1  and  C_2 
REMARK    2  A    between atoms: C_4  and  O_5 
REMARK    3  A    between atoms: C_6  and  C_17 
REMARK    4  A    between atoms: C_8  and  C_9 
REMARK    5  A    between atoms: C_9  and  C_10 
REMARK    6  A    between atoms: C_10  and  C_11 
REMARK    7  A    between atoms: N_23  and  C_24 
ROOT
HETATM    1  C   UNL     1      -0.095  15.397  26.266  0.00  0.00     0.074 C 
HETATM    2  C   UNL     1      -0.991  15.072  27.282  0.00  0.00     0.074 C 
HETATM    3  C   UNL     1      -2.066  14.220  27.015  0.00  0.00     0.082 C 
HETATM    4  C   UNL     1      -2.304  13.743  25.715  0.00  0.00     0.046 C 
HETATM    5  C   UNL     1      -1.455  14.201  24.692  0.00  0.00     0.028 C 
HETATM    6  C   UNL     1      -0.277  14.925  24.965  0.00  0.00    -0.024 C 
ENDROOT
BRANCH   4   7
HETATM    7  C   UNL     1      -3.419  12.775  25.446  0.00  0.00     0.172 A 
HETATM    8  N   UNL     1      -4.323  12.491  26.349  0.00  0.00    -0.151 NA
HETATM    9  N   UNL     1      -5.178  11.627  25.742  0.00  0.00    -0.226 N 
HETATM   10  H   UNL     1      -5.923  11.156  26.237  0.00  0.00     0.194 HD
HETATM   11  C   UNL     1      -4.783  11.375  24.438  0.00  0.00     0.349 A 
HETATM   12  O   UNL     1      -5.331  10.593  23.678  0.00  0.00    -0.245 OA
HETATM   13  N   UNL     1      -3.648  12.138  24.245  0.00  0.00    -0.241 N 
BRANCH  13  14
HETATM   14  C   UNL     1      -2.908  12.085  23.051  0.00  0.00     0.084 A 
HETATM   15  C   UNL     1      -3.267  12.943  21.999  0.00  0.00     0.033 A 
HETATM   16  C   UNL     1      -2.479  13.022  20.848  0.00  0.00     0.002 A 
HETATM   17  C   UNL     1      -1.349  12.215  20.719  0.00  0.00     0.003 A 
HETATM   18  C   UNL     1      -1.022  11.314  21.730  0.00  0.00     0.044 A 
HETATM   19  C   UNL     1      -1.805  11.252  22.884  0.00  0.00     0.143 A 
HETATM   20  F   UNL     1      -1.469  10.366  23.835  0.00  0.00    -0.204 F 
ENDBRANCH  13  14
ENDBRANCH   4   7
BRANCH   3  21
HETATM   21  O   UNL     1      -2.864  13.852  28.063  0.00  0.00    -0.360 OA
HETATM   22  H   UNL     1      -3.323  13.020  27.870  0.00  0.00     0.217 HD
ENDBRANCH   3  21
BRANCH   6  23
HETATM   23  C   UNL     1       0.726  15.109  23.835  0.00  0.00     0.046 C 
BRANCH  23  24
HETATM   24  C   UNL     1       0.780  16.524  23.235  0.00  0.00     0.043 C 
BRANCH  24  25
HETATM   25  C   UNL     1       0.020  16.671  21.938  0.00  0.00    -0.058 A 
HETATM   26  C   UNL     1      -1.354  16.398  21.892  0.00  0.00     0.007 A 
HETATM   27  C   UNL     1      -2.078  16.600  20.716  0.00  0.00     0.001 A 
HETATM   28  C   UNL     1      -1.433  17.068  19.572  0.00  0.00     0.000 A 
HETATM   29  C   UNL     1      -0.064  17.328  19.603  0.00  0.00     0.001 A 
HETATM   30  C   UNL     1       0.661  17.128  20.779  0.00  0.00     0.007 A 
ENDBRANCH  24  25
ENDBRANCH  23  24
ENDBRANCH   6  23
BRANCH   1  31
HETATM   31  O   UNL     1       0.973  16.193  26.557  0.00  0.00    -0.360 OA
HETATM   32  H   UNL     1       1.722  15.644  26.841  0.00  0.00     0.217 HD
ENDBRANCH   1  31
TORSDOF 7
ENDMDL
MODEL 7
REMARK VINA RESULT:    -8.555      2.694      4.253
REMARK INTER + INTRA:         -13.757
REMARK INTER:                 -12.022
REMARK INTRA:                  -1.735
REMARK UNBOUND:                -2.202
REMARK  7 active torsions:
REMARK  status: ('A' for Active; 'I' for Inactive)
REMARK    1  A    between atoms: O_1  and  C_2 
REMARK    2  A    between atoms: C_4  and  O_5 
REMARK    3  A    between atoms: C_6  and  C_17 
REMARK    4  A    between atoms: C_8  and  C_9 
REMARK    5  A    between atoms: C_9  and  C_10 
REMARK    6  A    between atoms: C_10  and  C_11 
REMARK    7  A    between atoms: N_23  and  C_24 
ROOT
HETATM    1  C   UNL     1       0.759  13.171  21.638  0.00  0.00     0.074 C 
HETATM    2  C   UNL     1      -0.049  12.244  20.984  0.00  0.00     0.074 C 
HETATM    3  C   UNL     1      -1.265  11.856  21.554  0.00  0.00     0.082 C 
HETATM    4  C   UNL     1      -1.653  12.329  22.818  0.00  0.00     0.046 C 
HETATM    5  C   UNL     1      -0.749  13.159  23.504  0.00  0.00     0.028 C 
HETATM    6  C   UNL     1       0.401  13.688  22.884  0.00  0.00    -0.024 C 
ENDROOT
BRANCH   4   7
HETATM    7  C   UNL     1      -2.988  11.964  23.397  0.00  0.00     0.172 A 
HETATM    8  N   UNL     1      -4.111  12.356  22.849  0.00  0.00    -0.151 NA
HETATM    9  N   UNL     1      -5.094  11.808  23.611  0.00  0.00    -0.226 N 
HETATM   10  H   UNL     1      -6.072  12.028  23.483  0.00  0.00     0.194 HD
HETATM   11  C   UNL     1      -4.557  11.067  24.651  0.00  0.00     0.349 A 
HETATM   12  O   UNL     1      -5.204  10.512  25.525  0.00  0.00    -0.245 OA
HETATM   13  N   UNL     1      -3.187  11.158  24.497  0.00  0.00    -0.241 N 
BRANCH  13  14
HETATM   14  C   UNL     1      -2.293  10.590  25.422  0.00  0.00     0.084 A 
HETATM   15  C   UNL     1      -2.442  10.904  26.781  0.00  0.00     0.033 A 
HETATM   16  C   UNL     1      -1.665  10.260  27.748  0.00  0.00     0.002 A 
HETATM   17  C   UNL     1      -0.703   9.327  27.361  0.00  0.00     0.003 A 
HETATM   18  C   UNL     1      -0.503   9.056  26.009  0.00  0.00     0.044 A 
HETATM   19  C   UNL     1      -1.294   9.693  25.050  0.00  0.00     0.143 A 
HETATM   20  F   UNL     1      -1.070   9.419  23.755  0.00  0.00    -0.204 F 
ENDBRANCH  13  14
ENDBRANCH   4   7
BRANCH   3  21
HETATM   21  O   UNL     1      -2.070  11.018  20.832  0.00  0.00    -0.360 OA
HETATM   22  H   UNL     1      -2.960  10.983  21.214  0.00  0.00     0.217 HD
ENDBRANCH   3  21
BRANCH   6  23
HETATM   23  C   UNL     1       1.147  14.808  23.597  0.00  0.00     0.046 C 
BRANCH  23  24
HETATM   24  C   UNL     1       0.516  16.204  23.458  0.00  0.00     0.043 C 
BRANCH  24  25
HETATM   25  C   UNL     1       0.051  16.532  22.059  0.00  0.00    -0.058 A 
HETATM   26  C   UNL     1      -1.311  16.458  21.734  0.00  0.00     0.007 A 
HETATM   27  C   UNL     1      -1.758  16.828  20.465  0.00  0.00     0.001 A 
HETATM   28  C   UNL     1      -0.847  17.266  19.506  0.00  0.00     0.000 A 
HETATM   29  C   UNL     1       0.512  17.329  19.813  0.00  0.00     0.001 A 
HETATM   30  C   UNL     1       0.960  16.960  21.084  0.00  0.00     0.007 A 
ENDBRANCH  24  25
ENDBRANCH  23  24
ENDBRANCH   6  23
BRANCH   1  31
HETATM   31  O   UNL     1       1.919  13.571  21.044  0.00  0.00    -0.360 OA
HETATM   32  H   UNL     1       1.928  14.538  20.964  0.00  0.00     0.217 HD
ENDBRANCH   1  31
TORSDOF 7
ENDMDL
MODEL 8
REMARK VINA RESULT:    -8.446      2.761      5.090
REMARK INTER + INTRA:         -13.610
REMARK INTER:                 -11.475
REMARK INTRA:                  -2.136
REMARK UNBOUND:                -2.202
REMARK  7 active torsions:
REMARK  status: ('A' for Active; 'I' for Inactive)
REMARK    1  A    between atoms: O_1  and  C_2 
REMARK    2  A    between atoms: C_4  and  O_5 
REMARK    3  A    between atoms: C_6  and  C_17 
REMARK    4  A    between atoms: C_8  and  C_9 
REMARK    5  A    between atoms: C_9  and  C_10 
REMARK    6  A    between atoms: C_10  and  C_11 
REMARK    7  A    between atoms: N_23  and  C_24 
ROOT
HETATM    1  C   UNL     1      -4.536  11.908  24.290  0.00  0.00     0.074 C 
HETATM    2  C   UNL     1      -4.115  11.487  25.549  0.00  0.00     0.074 C 
HETATM    3  C   UNL     1      -3.231  12.278  26.288  0.00  0.00     0.082 C 
HETATM    4  C   UNL     1      -2.697  13.460  25.749  0.00  0.00     0.046 C 
HETATM    5  C   UNL     1      -3.044  13.782  24.425  0.00  0.00     0.028 C 
HETATM    6  C   UNL     1      -4.053  13.090  23.726  0.00  0.00    -0.024 C 
ENDROOT
BRANCH   4   7
HETATM    7  C   UNL     1      -1.803  14.341  26.570  0.00  0.00     0.172 A 
HETATM    8  N   UNL     1      -2.133  14.735  27.773  0.00  0.00    -0.151 NA
HETATM    9  N   UNL     1      -1.078  15.469  28.214  0.00  0.00    -0.226 N 
HETATM   10  H   UNL     1      -1.097  15.989  29.081  0.00  0.00     0.194 HD
HETATM   11  C   UNL     1      -0.082  15.528  27.254  0.00  0.00     0.349 A 
HETATM   12  O   UNL     1       0.954  16.166  27.355  0.00  0.00    -0.245 OA
HETATM   13  N   UNL     1      -0.551  14.779  26.193  0.00  0.00    -0.241 N 
BRANCH  13  14
HETATM   14  C   UNL     1       0.161  14.667  24.985  0.00  0.00     0.084 A 
HETATM   15  C   UNL     1       0.441  15.836  24.260  0.00  0.00     0.033 A 
HETATM   16  C   UNL     1       1.259  15.790  23.128  0.00  0.00     0.002 A 
HETATM   17  C   UNL     1       1.771  14.569  22.687  0.00  0.00     0.003 A 
HETATM   18  C   UNL     1       1.445  13.396  23.362  0.00  0.00     0.044 A 
HETATM   19  C   UNL     1       0.639  13.452  24.501  0.00  0.00     0.143 A 
HETATM   20  F   UNL     1       0.334  12.302  25.123  0.00  0.00    -0.204 F 
ENDBRANCH  13  14
ENDBRANCH   4   7
BRANCH   3  21
HETATM   21  O   UNL     1      -2.920  11.873  27.557  0.00  0.00    -0.360 OA
HETATM   22  H   UNL     1      -3.691  11.475  27.989  0.00  0.00     0.217 HD
ENDBRANCH   3  21
BRANCH   6  23
HETATM   23  C   UNL     1      -4.568  13.696  22.427  0.00  0.00     0.046 C 
BRANCH  23  24
HETATM   24  C   UNL     1      -3.639  13.523  21.214  0.00  0.00     0.043 C 
BRANCH  24  25
HETATM   25  C   UNL     1      -3.058  14.817  20.695  0.00  0.00    -0.058 A 
HETATM   26  C   UNL     1      -3.825  15.654  19.872  0.00  0.00     0.007 A 
HETATM   27  C   UNL     1      -3.322  16.885  19.447  0.00  0.00     0.001 A 
HETATM   28  C   UNL     1      -2.044  17.285  19.832  0.00  0.00     0.000 A 
HETATM   29  C   UNL     1      -1.266  16.454  20.637  0.00  0.00     0.001 A 
HETATM   30  C   UNL     1      -1.769  15.223  21.064  0.00  0.00     0.007 A 
ENDBRANCH  24  25
ENDBRANCH  23  24
ENDBRANCH   6  23
BRANCH   1  31
HETATM   31  O   UNL     1      -5.434  11.144  23.604  0.00  0.00    -0.360 OA
HETATM   32  H   UNL     1      -6.003  10.668  24.231  0.00  0.00     0.217 HD
ENDBRANCH   1  31
TORSDOF 7
ENDMDL
MODEL 9
REMARK VINA RESULT:    -8.329      2.558      5.238
REMARK INTER + INTRA:         -13.453
REMARK INTER:                 -11.250
REMARK INTRA:                  -2.202
REMARK UNBOUND:                -2.202
REMARK  7 active torsions:
REMARK  status: ('A' for Active; 'I' for Inactive)
REMARK    1  A    between atoms: O_1  and  C_2 
REMARK    2  A    between atoms: C_4  and  O_5 
REMARK    3  A    between atoms: C_6  and  C_17 
REMARK    4  A    between atoms: C_8  and  C_9 
REMARK    5  A    between atoms: C_9  and  C_10 
REMARK    6  A    between atoms: C_10  and  C_11 
REMARK    7  A    between atoms: N_23  and  C_24 
ROOT
HETATM    1  C   UNL     1       2.717  15.103  21.765  0.00  0.00     0.074 C 
HETATM    2  C   UNL     1       3.134  14.367  22.871  0.00  0.00     0.074 C 
HETATM    3  C   UNL     1       2.329  14.311  24.013  0.00  0.00     0.082 C 
HETATM    4  C   UNL     1       1.138  15.051  24.094  0.00  0.00     0.046 C 
HETATM    5  C   UNL     1       0.820  15.886  23.009  0.00  0.00     0.028 C 
HETATM    6  C   UNL     1       1.527  15.833  21.790  0.00  0.00    -0.024 C 
ENDROOT
BRANCH   4   7
HETATM    7  C   UNL     1       0.245  14.935  25.293  0.00  0.00     0.172 A 
HETATM    8  N   UNL     1       0.469  15.609  26.392  0.00  0.00    -0.151 NA
HETATM    9  N   UNL     1      -0.553  15.288  27.228  0.00  0.00    -0.226 N 
HETATM   10  H   UNL     1      -0.584  15.583  28.194  0.00  0.00     0.194 HD
HETATM   11  C   UNL     1      -1.420  14.392  26.624  0.00  0.00     0.349 A 
HETATM   12  O   UNL     1      -2.393  13.886  27.161  0.00  0.00    -0.245 OA
HETATM   13  N   UNL     1      -0.906  14.179  25.360  0.00  0.00    -0.241 N 
BRANCH  13  14
HETATM   14  C   UNL     1      -1.480  13.257  24.467  0.00  0.00     0.084 A 
HETATM   15  C   UNL     1      -0.823  12.037  24.246  0.00  0.00     0.033 A 
HETATM   16  C   UNL     1      -1.422  11.038  23.474  0.00  0.00     0.002 A 
HETATM   17  C   UNL     1      -2.664  11.265  22.881  0.00  0.00     0.003 A 
HETATM   18  C   UNL     1      -3.293  12.497  23.041  0.00  0.00     0.044 A 
HETATM   19  C   UNL     1      -2.696  13.484  23.827  0.00  0.00     0.143 A 
HETATM   20  F   UNL     1      -3.323  14.665  23.953  0.00  0.00    -0.204 F 
ENDBRANCH  13  14
ENDBRANCH   4   7
BRANCH   3  21
HETATM   21  O   UNL     1       2.732  13.499  25.038  0.00  0.00    -0.360 OA
HETATM   22  H   UNL     1       3.273  13.991  25.673  0.00  0.00     0.217 HD
ENDBRANCH   3  21
BRANCH   6  23
HETATM   23  C   UNL     1       0.926  16.542  20.584  0.00  0.00     0.046 C 
BRANCH  23  24
HETATM   24  C   UNL     1      -0.365  17.329  20.866  0.00  0.00     0.043 C 
BRANCH  24  25
HETATM   25  C   UNL     1      -1.624  16.622  20.425  0.00  0.00    -0.058 A 
HETATM   26  C   UNL     1      -1.787  15.252  20.674  0.00  0.00     0.007 A 
HETATM   27  C   UNL     1      -2.977  14.606  20.334  0.00  0.00     0.001 A 
HETATM   28  C   UNL     1      -4.011  15.322  19.733  0.00  0.00     0.000 A 
HETATM   29  C   UNL     1      -3.854  16.682  19.467  0.00  0.00     0.001 A 
HETATM   30  C   UNL     1      -2.664  17.329  19.808  0.00  0.00     0.007 A 
ENDBRANCH  24  25
ENDBRANCH  23  24
ENDBRANCH   6  23
BRANCH   1  31
HETATM   31  O   UNL     1       3.493  15.108  20.644  0.00  0.00    -0.360 OA
HETATM   32  H   UNL     1       4.418  14.941  20.886  0.00  0.00     0.217 HD
ENDBRANCH   1  31
TORSDOF 7
ENDMDL
