REMARK  7 active torsions:
REMARK  status: ('A' for Active; 'I' for Inactive)
REMARK    1  A    between atoms: O_1  and  C_2 
REMARK    2  A    between atoms: C_4  and  O_5 
REMARK    3  A    between atoms: C_6  and  C_17 
REMARK    4  A    between atoms: C_8  and  C_9 
REMARK    5  A    between atoms: C_9  and  C_10 
REMARK    6  A    between atoms: C_10  and  C_11 
REMARK    7  A    between atoms: N_23  and  C_24 
ROOT
HETATM    1  C   UNL     1       2.406   0.233   0.217  0.00  0.00     0.074 C 
HETATM    2  C   UNL     1       3.138   1.403   0.029  0.00  0.00     0.074 C 
HETATM    3  C   UNL     1       4.517   1.334  -0.188  0.00  0.00     0.082 C 
HETATM    4  C   UNL     1       5.194   0.104  -0.143  0.00  0.00     0.046 C 
HETATM    5  C   UNL     1       4.441  -1.038   0.181  0.00  0.00     0.028 C 
HETATM    6  C   UNL     1       3.033  -1.014   0.242  0.00  0.00    -0.024 C 
ENDROOT
BRANCH   4   7
HETATM    7  C   UNL     1       6.662   0.026  -0.443  0.00  0.00     0.172 A 
HETATM    8  N   UNL     1       7.458   1.052  -0.280  0.00  0.00    -0.151 NA
HETATM    9  N   UNL     1       8.698   0.601  -0.605  0.00  0.00    -0.226 N 
HETATM   10  H   UNL     1       9.502   1.210  -0.671  0.00  0.00     0.194 HD
HETATM   11  C   UNL     1       8.656  -0.732  -0.979  0.00  0.00     0.349 A 
HETATM   12  O   UNL     1       9.611  -1.380  -1.377  0.00  0.00    -0.245 OA
HETATM   13  N   UNL     1       7.332  -1.106  -0.856  0.00  0.00    -0.241 N 
BRANCH  13  14
HETATM   14  C   UNL     1       6.880  -2.385  -1.226  0.00  0.00     0.084 A 
HETATM   15  C   UNL     1       7.503  -3.508  -0.660  0.00  0.00     0.033 A 
HETATM   16  C   UNL     1       7.001  -4.791  -0.893  0.00  0.00     0.002 A 
HETATM   17  C   UNL     1       5.897  -4.967  -1.727  0.00  0.00     0.003 A 
HETATM   18  C   UNL     1       5.312  -3.864  -2.345  0.00  0.00     0.044 A 
HETATM   19  C   UNL     1       5.810  -2.584  -2.095  0.00  0.00     0.143 A 
HETATM   20  F   UNL     1       5.231  -1.543  -2.714  0.00  0.00    -0.204 F 
ENDBRANCH  13  14
ENDBRANCH   4   7
BRANCH   3  21
HETATM   21  O   UNL     1       5.179   2.499  -0.463  0.00  0.00    -0.360 OA
HETATM   22  H   UNL     1       4.585   3.260  -0.377  0.00  0.00     0.217 HD
ENDBRANCH   3  21
BRANCH   6  23
HETATM   23  C   UNL     1       2.297  -2.346   0.295  0.00  0.00     0.046 C 
BRANCH  23  24
HETATM   24  C   UNL     1       0.984  -2.398  -0.504  0.00  0.00     0.043 C 
BRANCH  24  25
HETATM   25  C   UNL     1       0.419  -3.789  -0.669  0.00  0.00    -0.058 A 
HETATM   26  C   UNL     1      -0.457  -4.312   0.292  0.00  0.00     0.007 A 
HETATM   27  C   UNL     1      -1.039  -5.568   0.112  0.00  0.00     0.001 A 
HETATM   28  C   UNL     1      -0.743  -6.316  -1.026  0.00  0.00     0.000 A 
HETATM   29  C   UNL     1       0.139  -5.812  -1.981  0.00  0.00     0.001 A 
HETATM   30  C   UNL     1       0.721  -4.555  -1.802  0.00  0.00     0.007 A 
ENDBRANCH  24  25
ENDBRANCH  23  24
ENDBRANCH   6  23
BRANCH   1  31
HETATM   31  O   UNL     1       1.055   0.318   0.381  0.00  0.00    -0.360 OA
HETATM   32  H   UNL     1       0.762   1.228   0.211  0.00  0.00     0.217 HD
ENDBRANCH   1  31
TORSDOF 7
