MODEL 1
REMARK VINA RESULT:    -9.954      0.000      0.000
REMARK INTER + INTRA:         -14.796
REMARK INTER:                 -13.240
REMARK INTRA:                  -1.556
REMARK UNBOUND:                -1.642
REMARK  6 active torsions:
REMARK  status: ('A' for Active; 'I' for Inactive)
REMARK    1  A    between atoms: C_9  and  C_11 
REMARK    2  A    between atoms: N_17  and  C_21 
REMARK    3  A    between atoms: C_24  and  C_25 
REMARK       I    between atoms: C_25  and  N_27 
REMARK    4  A    between atoms: C_29  and  N_30 
REMARK    5  A    between atoms: N_30  and  C_31 
REMARK    6  A    between atoms: C_34  and  O_35 
ROOT
HETATM    1  C   UNL     1       7.961  14.934  23.088  0.00  0.00     0.060 C 
HETATM    2  C   UNL     1       8.511  15.040  21.807  0.00  0.00     0.033 C 
HETATM    3  C   UNL     1       9.854  15.368  21.644  0.00  0.00     0.021 C 
HETATM    4  C   UNL     1      10.691  15.527  22.762  0.00  0.00     0.053 C 
HETATM    5  C   UNL     1       8.771  15.149  24.204  0.00  0.00     0.056 C 
HETATM    6  C   UNL     1      10.149  15.353  24.072  0.00  0.00     0.026 C 
ENDROOT
BRANCH   1   7
HETATM    7  N   UNL     1       6.635  14.441  23.242  0.00  0.00    -0.233 N 
HETATM    8  C   UNL     1       5.904  13.561  22.454  0.00  0.00     0.072 A 
HETATM    9  C   UNL     1       6.330  12.670  21.453  0.00  0.00     0.032 A 
HETATM   10  C   UNL     1       4.556  13.661  22.870  0.00  0.00     0.030 A 
HETATM   11  C   UNL     1       5.384  11.876  20.831  0.00  0.00     0.003 A 
HETATM   12  C   UNL     1       4.048  11.976  21.191  0.00  0.00     0.013 A 
HETATM   13  C   UNL     1       3.561  12.868  22.189  0.00  0.00    -0.010 A 
HETATM   14  C   UNL     1       4.638  14.611  23.950  0.00  0.00     0.065 C 
HETATM   15  N   UNL     1       5.897  14.942  24.243  0.00  0.00    -0.171 NA
HETATM   16  C   UNL     1       3.613  15.233  24.827  0.00  0.00     0.073 C 
BRANCH  13  17
HETATM   17  C   UNL     1       2.096  12.867  22.474  0.00  0.00    -0.006 A 
HETATM   18  C   UNL     1       1.521  12.332  23.615  0.00  0.00     0.129 A 
HETATM   19  N   UNL     1       0.195  12.307  23.923  0.00  0.00    -0.259 NA
HETATM   20  C   UNL     1      -0.677  12.721  22.997  0.00  0.00     0.066 A 
HETATM   21  C   UNL     1      -2.042  12.645  23.251  0.00  0.00     0.032 A 
HETATM   22  C   UNL     1      -0.245  13.187  21.745  0.00  0.00    -0.007 A 
HETATM   23  C   UNL     1      -2.986  12.944  22.266  0.00  0.00     0.002 A 
HETATM   24  C   UNL     1      -2.562  13.337  21.002  0.00  0.00     0.001 A 
HETATM   25  C   UNL     1      -1.199  13.483  20.746  0.00  0.00     0.014 A 
HETATM   26  C   UNL     1       1.145  13.310  21.531  0.00  0.00     0.027 A 
ENDBRANCH  13  17
ENDBRANCH   1   7
BRANCH   6  27
HETATM   27  N   UNL     1      10.952  15.394  25.257  0.00  0.00    -0.288 NA
HETATM   28  H   UNL     1      11.938  15.357  24.944  0.00  0.00     0.128 HD
BRANCH  27  29
HETATM   29  C   UNL     1      10.679  14.305  26.239  0.00  0.00     0.060 C 
HETATM   30  C   UNL     1      11.328  13.007  25.763  0.00  0.00     0.022 C 
HETATM   31  C   UNL     1      12.847  13.148  25.771  0.00  0.00     0.033 C 
HETATM   32  C   UNL     1      13.342  13.265  27.207  0.00  0.00     0.118 C 
HETATM   33  C   UNL     1      12.651  14.384  27.989  0.00  0.00     0.033 C 
HETATM   34  C   UNL     1      11.172  14.647  27.661  0.00  0.00     0.022 C 
BRANCH  32  35
HETATM   35  O   UNL     1      13.115  12.020  27.869  0.00  0.00    -0.396 OA
HETATM   36  H   UNL     1      12.743  11.407  27.211  0.00  0.00     0.210 HD
ENDBRANCH  32  35
ENDBRANCH  27  29
ENDBRANCH   6  27
BRANCH   4  37
HETATM   37  C   UNL     1      12.155  15.751  22.542  0.00  0.00     0.251 C 
HETATM   38  O   UNL     1      12.991  15.304  23.313  0.00  0.00    -0.268 OA
HETATM   39  N   UNL     1      12.544  16.440  21.419  0.00  0.00    -0.366 N 
HETATM   40  H   UNL     1      11.916  16.981  20.838  0.00  0.00     0.159 HD
HETATM   41  H   UNL     1      13.538  16.578  21.276  0.00  0.00     0.159 HD
ENDBRANCH   4  37
TORSDOF 6
ENDMDL
MODEL 2
REMARK VINA RESULT:    -9.499      5.521     11.127
REMARK INTER + INTRA:         -14.195
REMARK INTER:                 -12.500
REMARK INTRA:                  -1.695
REMARK UNBOUND:                -1.642
REMARK  6 active torsions:
REMARK  status: ('A' for Active; 'I' for Inactive)
REMARK    1  A    between atoms: C_9  and  C_11 
REMARK    2  A    between atoms: N_17  and  C_21 
REMARK    3  A    between atoms: C_24  and  C_25 
REMARK       I    between atoms: C_25  and  N_27 
REMARK    4  A    between atoms: C_29  and  N_30 
REMARK    5  A    between atoms: N_30  and  C_31 
REMARK    6  A    between atoms: C_34  and  O_35 
ROOT
HETATM    1  C   UNL     1       6.603  10.209  20.557  0.00  0.00     0.060 C 
HETATM    2  C   UNL     1       6.511  10.956  19.379  0.00  0.00     0.033 C 
HETATM    3  C   UNL     1       5.646  10.560  18.362  0.00  0.00     0.021 C 
HETATM    4  C   UNL     1       4.805   9.449  18.533  0.00  0.00     0.053 C 
HETATM    5  C   UNL     1       5.815   9.068  20.711  0.00  0.00     0.056 C 
HETATM    6  C   UNL     1       4.847   8.721  19.762  0.00  0.00     0.026 C 
ENDROOT
BRANCH   1   7
HETATM    7  N   UNL     1       7.366  10.713  21.648  0.00  0.00    -0.233 N 
HETATM    8  C   UNL     1       7.592  12.020  22.061  0.00  0.00     0.072 A 
HETATM    9  C   UNL     1       6.919  13.208  21.727  0.00  0.00     0.032 A 
HETATM   10  C   UNL     1       8.663  11.978  22.984  0.00  0.00     0.030 A 
HETATM   11  C   UNL     1       7.338  14.391  22.307  0.00  0.00     0.003 A 
HETATM   12  C   UNL     1       8.409  14.389  23.189  0.00  0.00     0.013 A 
HETATM   13  C   UNL     1       9.133  13.218  23.554  0.00  0.00    -0.010 A 
HETATM   14  C   UNL     1       8.949  10.568  23.059  0.00  0.00     0.065 C 
HETATM   15  N   UNL     1       8.071   9.834  22.374  0.00  0.00    -0.171 NA
HETATM   16  C   UNL     1       9.974   9.784  23.793  0.00  0.00     0.073 C 
BRANCH  13  17
HETATM   17  C   UNL     1      10.264  13.365  24.517  0.00  0.00    -0.006 A 
HETATM   18  C   UNL     1      10.263  12.862  25.808  0.00  0.00     0.129 A 
HETATM   19  N   UNL     1      11.266  12.968  26.723  0.00  0.00    -0.259 NA
HETATM   20  C   UNL     1      12.320  13.734  26.420  0.00  0.00     0.066 A 
HETATM   21  C   UNL     1      13.330  13.919  27.357  0.00  0.00     0.032 A 
HETATM   22  C   UNL     1      12.407  14.400  25.187  0.00  0.00    -0.007 A 
HETATM   23  C   UNL     1      14.381  14.811  27.132  0.00  0.00     0.002 A 
HETATM   24  C   UNL     1      14.433  15.528  25.942  0.00  0.00     0.001 A 
HETATM   25  C   UNL     1      13.466  15.307  24.961  0.00  0.00     0.014 A 
HETATM   26  C   UNL     1      11.401  14.150  24.231  0.00  0.00     0.027 A 
ENDBRANCH  13  17
ENDBRANCH   1   7
BRANCH   6  27
HETATM   27  N   UNL     1       3.953   7.642  20.058  0.00  0.00    -0.288 NA
HETATM   28  H   UNL     1       3.555   7.841  20.994  0.00  0.00     0.128 HD
BRANCH  27  29
HETATM   29  C   UNL     1       4.574   6.287  20.036  0.00  0.00     0.060 C 
HETATM   30  C   UNL     1       3.520   5.232  20.366  0.00  0.00     0.022 C 
HETATM   31  C   UNL     1       2.468   5.181  19.263  0.00  0.00     0.033 C 
HETATM   32  C   UNL     1       3.094   4.642  17.982  0.00  0.00     0.118 C 
HETATM   33  C   UNL     1       4.344   5.415  17.556  0.00  0.00     0.033 C 
HETATM   34  C   UNL     1       5.240   5.958  18.683  0.00  0.00     0.022 C 
BRANCH  32  35
HETATM   35  O   UNL     1       3.436   3.271  18.185  0.00  0.00    -0.396 OA
HETATM   36  H   UNL     1       3.570   2.873  17.307  0.00  0.00     0.210 HD
ENDBRANCH  32  35
ENDBRANCH  27  29
ENDBRANCH   6  27
BRANCH   4  37
HETATM   37  C   UNL     1       3.799   9.133  17.469  0.00  0.00     0.251 C 
HETATM   38  O   UNL     1       2.660   8.790  17.750  0.00  0.00    -0.268 OA
HETATM   39  N   UNL     1       4.175   9.281  16.156  0.00  0.00    -0.366 N 
HETATM   40  H   UNL     1       5.134   9.390  15.849  0.00  0.00     0.159 HD
HETATM   41  H   UNL     1       3.484   9.074  15.445  0.00  0.00     0.159 HD
ENDBRANCH   4  37
TORSDOF 6
ENDMDL
MODEL 3
REMARK VINA RESULT:    -9.401      2.522      3.887
REMARK INTER + INTRA:         -14.065
REMARK INTER:                 -12.773
REMARK INTRA:                  -1.292
REMARK UNBOUND:                -1.642
REMARK  6 active torsions:
REMARK  status: ('A' for Active; 'I' for Inactive)
REMARK    1  A    between atoms: C_9  and  C_11 
REMARK    2  A    between atoms: N_17  and  C_21 
REMARK    3  A    between atoms: C_24  and  C_25 
REMARK       I    between atoms: C_25  and  N_27 
REMARK    4  A    between atoms: C_29  and  N_30 
REMARK    5  A    between atoms: N_30  and  C_31 
REMARK    6  A    between atoms: C_34  and  O_35 
ROOT
HETATM    1  C   UNL     1       8.194  14.097  23.659  0.00  0.00     0.060 C 
HETATM    2  C   UNL     1       9.006  15.210  23.418  0.00  0.00     0.033 C 
HETATM    3  C   UNL     1      10.367  15.161  23.705  0.00  0.00     0.021 C 
HETATM    4  C   UNL     1      10.956  13.975  24.174  0.00  0.00     0.053 C 
HETATM    5  C   UNL     1       8.759  12.933  24.181  0.00  0.00     0.056 C 
HETATM    6  C   UNL     1      10.142  12.815  24.358  0.00  0.00     0.026 C 
ENDROOT
BRANCH   1   7
HETATM    7  N   UNL     1       6.843  14.106  23.211  0.00  0.00    -0.233 N 
HETATM    8  C   UNL     1       5.712  14.686  23.771  0.00  0.00     0.072 A 
HETATM    9  C   UNL     1       5.595  15.670  24.767  0.00  0.00     0.032 A 
HETATM   10  C   UNL     1       4.594  14.130  23.106  0.00  0.00     0.030 A 
HETATM   11  C   UNL     1       4.329  16.095  25.130  0.00  0.00     0.003 A 
HETATM   12  C   UNL     1       3.211  15.543  24.523  0.00  0.00     0.013 A 
HETATM   13  C   UNL     1       3.272  14.537  23.517  0.00  0.00    -0.010 A 
HETATM   14  C   UNL     1       5.214  13.262  22.137  0.00  0.00     0.065 C 
HETATM   15  N   UNL     1       6.543  13.381  22.124  0.00  0.00    -0.171 NA
HETATM   16  C   UNL     1       4.665  12.326  21.124  0.00  0.00     0.073 C 
BRANCH  13  17
HETATM   17  C   UNL     1       1.986  14.036  22.949  0.00  0.00    -0.006 A 
HETATM   18  C   UNL     1       1.606  14.181  21.624  0.00  0.00     0.129 A 
HETATM   19  N   UNL     1       0.448  13.743  21.057  0.00  0.00    -0.259 NA
HETATM   20  C   UNL     1      -0.492  13.227  21.858  0.00  0.00     0.066 A 
HETATM   21  C   UNL     1      -1.713  12.832  21.322  0.00  0.00     0.032 A 
HETATM   22  C   UNL     1      -0.291  13.119  23.243  0.00  0.00    -0.007 A 
HETATM   23  C   UNL     1      -2.766  12.410  22.137  0.00  0.00     0.002 A 
HETATM   24  C   UNL     1      -2.596  12.370  23.517  0.00  0.00     0.001 A 
HETATM   25  C   UNL     1      -1.357  12.698  24.069  0.00  0.00     0.014 A 
HETATM   26  C   UNL     1       0.976  13.470  23.755  0.00  0.00     0.027 A 
ENDBRANCH  13  17
ENDBRANCH   1   7
BRANCH   6  27
HETATM   27  N   UNL     1      10.678  11.541  24.732  0.00  0.00    -0.288 NA
HETATM   28  H   UNL     1      11.547  11.732  25.261  0.00  0.00     0.128 HD
BRANCH  27  29
HETATM   29  C   UNL     1      10.956  10.618  23.594  0.00  0.00     0.060 C 
HETATM   30  C   UNL     1      10.564   9.193  23.979  0.00  0.00     0.022 C 
HETATM   31  C   UNL     1       9.053   9.102  24.175  0.00  0.00     0.033 C 
HETATM   32  C   UNL     1       8.350   9.295  22.836  0.00  0.00     0.118 C 
HETATM   33  C   UNL     1       8.767  10.583  22.123  0.00  0.00     0.033 C 
HETATM   34  C   UNL     1      10.228  11.031  22.298  0.00  0.00     0.022 C 
BRANCH  32  35
HETATM   35  O   UNL     1       8.650   8.177  22.000  0.00  0.00    -0.396 OA
HETATM   36  H   UNL     1       9.199   8.506  21.265  0.00  0.00     0.210 HD
ENDBRANCH  32  35
ENDBRANCH  27  29
ENDBRANCH   6  27
BRANCH   4  37
HETATM   37  C   UNL     1      12.442  13.926  24.348  0.00  0.00     0.251 C 
HETATM   38  O   UNL     1      13.200  14.312  23.470  0.00  0.00    -0.268 OA
HETATM   39  N   UNL     1      12.941  13.474  25.546  0.00  0.00    -0.366 N 
HETATM   40  H   UNL     1      12.391  12.983  26.240  0.00  0.00     0.159 HD
HETATM   41  H   UNL     1      13.948  13.454  25.656  0.00  0.00     0.159 HD
ENDBRANCH   4  37
TORSDOF 6
ENDMDL
MODEL 4
REMARK VINA RESULT:    -9.281      5.497     10.713
REMARK INTER + INTRA:         -13.908
REMARK INTER:                 -12.239
REMARK INTRA:                  -1.669
REMARK UNBOUND:                -1.642
REMARK  6 active torsions:
REMARK  status: ('A' for Active; 'I' for Inactive)
REMARK    1  A    between atoms: C_9  and  C_11 
REMARK    2  A    between atoms: N_17  and  C_21 
REMARK    3  A    between atoms: C_24  and  C_25 
REMARK       I    between atoms: C_25  and  N_27 
REMARK    4  A    between atoms: C_29  and  N_30 
REMARK    5  A    between atoms: N_30  and  C_31 
REMARK    6  A    between atoms: C_34  and  O_35 
ROOT
HETATM    1  C   UNL     1       4.237   9.847  24.637  0.00  0.00     0.060 C 
HETATM    2  C   UNL     1       3.036  10.312  24.094  0.00  0.00     0.033 C 
HETATM    3  C   UNL     1       1.830   9.702  24.430  0.00  0.00     0.021 C 
HETATM    4  C   UNL     1       1.796   8.660  25.370  0.00  0.00     0.053 C 
HETATM    5  C   UNL     1       4.219   8.772  25.527  0.00  0.00     0.056 C 
HETATM    6  C   UNL     1       3.012   8.226  25.979  0.00  0.00     0.026 C 
ENDROOT
BRANCH   1   7
HETATM    7  N   UNL     1       5.436  10.580  24.413  0.00  0.00    -0.233 N 
HETATM    8  C   UNL     1       6.721  10.138  24.123  0.00  0.00     0.072 A 
HETATM    9  C   UNL     1       7.170   8.884  23.675  0.00  0.00     0.032 A 
HETATM   10  C   UNL     1       7.587  11.240  24.315  0.00  0.00     0.030 A 
HETATM   11  C   UNL     1       8.522   8.714  23.435  0.00  0.00     0.003 A 
HETATM   12  C   UNL     1       9.402   9.764  23.648  0.00  0.00     0.013 A 
HETATM   13  C   UNL     1       9.003  11.051  24.111  0.00  0.00    -0.010 A 
HETATM   14  C   UNL     1       6.670  12.290  24.677  0.00  0.00     0.065 C 
HETATM   15  N   UNL     1       5.395  11.909  24.583  0.00  0.00    -0.171 NA
HETATM   16  C   UNL     1       6.865  13.711  25.065  0.00  0.00     0.073 C 
BRANCH  13  17
HETATM   17  C   UNL     1      10.059  12.088  24.294  0.00  0.00    -0.006 A 
HETATM   18  C   UNL     1      10.725  12.720  23.256  0.00  0.00     0.129 A 
HETATM   19  N   UNL     1      11.693  13.670  23.368  0.00  0.00    -0.259 NA
HETATM   20  C   UNL     1      12.159  13.957  24.589  0.00  0.00     0.066 A 
HETATM   21  C   UNL     1      13.195  14.873  24.735  0.00  0.00     0.032 A 
HETATM   22  C   UNL     1      11.657  13.312  25.731  0.00  0.00    -0.007 A 
HETATM   23  C   UNL     1      13.797  15.104  25.974  0.00  0.00     0.002 A 
HETATM   24  C   UNL     1      13.351  14.414  27.096  0.00  0.00     0.001 A 
HETATM   25  C   UNL     1      12.269  13.541  26.983  0.00  0.00     0.014 A 
HETATM   26  C   UNL     1      10.567  12.432  25.565  0.00  0.00     0.027 A 
ENDBRANCH  13  17
ENDBRANCH   1   7
BRANCH   6  27
HETATM   27  N   UNL     1       3.054   7.244  27.020  0.00  0.00    -0.288 NA
HETATM   28  H   UNL     1       2.261   6.600  26.848  0.00  0.00     0.128 HD
BRANCH  27  29
HETATM   29  C   UNL     1       2.986   7.792  28.405  0.00  0.00     0.060 C 
HETATM   30  C   UNL     1       2.027   6.952  29.245  0.00  0.00     0.022 C 
HETATM   31  C   UNL     1       2.586   5.544  29.427  0.00  0.00     0.033 C 
HETATM   32  C   UNL     1       3.836   5.598  30.296  0.00  0.00     0.118 C 
HETATM   33  C   UNL     1       4.888   6.577  29.771  0.00  0.00     0.033 C 
HETATM   34  C   UNL     1       4.367   7.855  29.091  0.00  0.00     0.022 C 
BRANCH  32  35
HETATM   35  O   UNL     1       3.455   5.982  31.618  0.00  0.00    -0.396 OA
HETATM   36  H   UNL     1       3.140   6.902  31.571  0.00  0.00     0.210 HD
ENDBRANCH  32  35
ENDBRANCH  27  29
ENDBRANCH   6  27
BRANCH   4  37
HETATM   37  C   UNL     1       0.467   8.118  25.800  0.00  0.00     0.251 C 
HETATM   38  O   UNL     1      -0.081   8.508  26.820  0.00  0.00    -0.268 OA
HETATM   39  N   UNL     1      -0.150   7.196  24.990  0.00  0.00    -0.366 N 
HETATM   40  H   UNL     1       0.312   6.705  24.235  0.00  0.00     0.159 HD
HETATM   41  H   UNL     1      -1.053   6.843  25.286  0.00  0.00     0.159 HD
ENDBRANCH   4  37
TORSDOF 6
ENDMDL
MODEL 5
REMARK VINA RESULT:    -9.008      5.449      7.428
REMARK INTER + INTRA:         -13.547
REMARK INTER:                 -12.047
REMARK INTRA:                  -1.500
REMARK UNBOUND:                -1.642
REMARK  6 active torsions:
REMARK  status: ('A' for Active; 'I' for Inactive)
REMARK    1  A    between atoms: C_9  and  C_11 
REMARK    2  A    between atoms: N_17  and  C_21 
REMARK    3  A    between atoms: C_24  and  C_25 
REMARK       I    between atoms: C_25  and  N_27 
REMARK    4  A    between atoms: C_29  and  N_30 
REMARK    5  A    between atoms: N_30  and  C_31 
REMARK    6  A    between atoms: C_34  and  O_35 
ROOT
HETATM    1  C   UNL     1       6.792  10.353  21.562  0.00  0.00     0.060 C 
HETATM    2  C   UNL     1       6.854   9.859  22.868  0.00  0.00     0.033 C 
HETATM    3  C   UNL     1       7.267  10.683  23.912  0.00  0.00     0.021 C 
HETATM    4  C   UNL     1       7.559  12.037  23.679  0.00  0.00     0.053 C 
HETATM    5  C   UNL     1       7.139  11.681  21.311  0.00  0.00     0.056 C 
HETATM    6  C   UNL     1       7.433  12.563  22.358  0.00  0.00     0.026 C 
ENDROOT
BRANCH   1   7
HETATM    7  N   UNL     1       6.215   9.551  20.537  0.00  0.00    -0.233 N 
HETATM    8  C   UNL     1       5.376   9.899  19.486  0.00  0.00     0.072 A 
HETATM    9  C   UNL     1       5.081  11.159  18.938  0.00  0.00     0.032 A 
HETATM   10  C   UNL     1       4.848   8.694  18.967  0.00  0.00     0.030 A 
HETATM   11  C   UNL     1       4.217  11.225  17.861  0.00  0.00     0.003 A 
HETATM   12  C   UNL     1       3.654  10.065  17.351  0.00  0.00     0.013 A 
HETATM   13  C   UNL     1       3.909   8.764  17.873  0.00  0.00    -0.010 A 
HETATM   14  C   UNL     1       5.498   7.699  19.781  0.00  0.00     0.065 C 
HETATM   15  N   UNL     1       6.410   8.226  20.600  0.00  0.00    -0.171 NA
HETATM   16  C   UNL     1       5.397   6.218  19.838  0.00  0.00     0.073 C 
BRANCH  13  17
HETATM   17  C   UNL     1       3.235   7.603  17.223  0.00  0.00    -0.006 A 
HETATM   18  C   UNL     1       2.353   6.749  17.866  0.00  0.00     0.129 A 
HETATM   19  N   UNL     1       1.712   5.679  17.320  0.00  0.00    -0.259 NA
HETATM   20  C   UNL     1       2.039   5.314  16.075  0.00  0.00     0.066 A 
HETATM   21  C   UNL     1       1.454   4.187  15.510  0.00  0.00     0.032 A 
HETATM   22  C   UNL     1       3.002   6.021  15.337  0.00  0.00    -0.007 A 
HETATM   23  C   UNL     1       1.860   3.698  14.267  0.00  0.00     0.002 A 
HETATM   24  C   UNL     1       2.865   4.353  13.563  0.00  0.00     0.001 A 
HETATM   25  C   UNL     1       3.418   5.524  14.082  0.00  0.00     0.014 A 
HETATM   26  C   UNL     1       3.538   7.195  15.906  0.00  0.00     0.027 A 
ENDBRANCH  13  17
ENDBRANCH   1   7
BRANCH   6  27
HETATM   27  N   UNL     1       7.611  13.951  22.052  0.00  0.00    -0.288 NA
HETATM   28  H   UNL     1       6.731  14.267  21.606  0.00  0.00     0.128 HD
BRANCH  27  29
HETATM   29  C   UNL     1       8.777  14.259  21.176  0.00  0.00     0.060 C 
HETATM   30  C   UNL     1       9.222  15.703  21.398  0.00  0.00     0.022 C 
HETATM   31  C   UNL     1       9.762  15.871  22.815  0.00  0.00     0.033 C 
HETATM   32  C   UNL     1      11.064  15.091  22.963  0.00  0.00     0.118 C 
HETATM   33  C   UNL     1      10.927  13.620  22.565  0.00  0.00     0.033 C 
HETATM   34  C   UNL     1       9.966  13.301  21.407  0.00  0.00     0.022 C 
BRANCH  32  35
HETATM   35  O   UNL     1      12.059  15.709  22.146  0.00  0.00    -0.396 OA
HETATM   36  H   UNL     1      12.815  15.919  22.722  0.00  0.00     0.210 HD
ENDBRANCH  32  35
ENDBRANCH  27  29
ENDBRANCH   6  27
BRANCH   4  37
HETATM   37  C   UNL     1       7.875  12.919  24.848  0.00  0.00     0.251 C 
HETATM   38  O   UNL     1       7.218  13.921  25.086  0.00  0.00    -0.268 OA
HETATM   39  N   UNL     1       8.903  12.549  25.681  0.00  0.00    -0.366 N 
HETATM   40  H   UNL     1       9.591  11.842  25.454  0.00  0.00     0.159 HD
HETATM   41  H   UNL     1       9.101  13.148  26.473  0.00  0.00     0.159 HD
ENDBRANCH   4  37
TORSDOF 6
ENDMDL
MODEL 6
REMARK VINA RESULT:    -8.993      6.069     10.555
REMARK INTER + INTRA:         -13.527
REMARK INTER:                 -11.892
REMARK INTRA:                  -1.635
REMARK UNBOUND:                -1.642
REMARK  6 active torsions:
REMARK  status: ('A' for Active; 'I' for Inactive)
REMARK    1  A    between atoms: C_9  and  C_11 
REMARK    2  A    between atoms: N_17  and  C_21 
REMARK    3  A    between atoms: C_24  and  C_25 
REMARK       I    between atoms: C_25  and  N_27 
REMARK    4  A    between atoms: C_29  and  N_30 
REMARK    5  A    between atoms: N_30  and  C_31 
REMARK    6  A    between atoms: C_34  and  O_35 
ROOT
HETATM    1  C   UNL     1       2.703   9.089  25.135  0.00  0.00     0.060 C 
HETATM    2  C   UNL     1       1.389   9.419  24.790  0.00  0.00     0.033 C 
HETATM    3  C   UNL     1       0.319   8.788  25.418  0.00  0.00     0.021 C 
HETATM    4  C   UNL     1       0.542   7.868  26.455  0.00  0.00     0.053 C 
HETATM    5  C   UNL     1       2.935   8.131  26.123  0.00  0.00     0.056 C 
HETATM    6  C   UNL     1       1.881   7.578  26.858  0.00  0.00     0.026 C 
ENDROOT
BRANCH   1   7
HETATM    7  N   UNL     1       3.779   9.854  24.604  0.00  0.00    -0.233 N 
HETATM    8  C   UNL     1       5.091   9.492  24.325  0.00  0.00     0.072 A 
HETATM    9  C   UNL     1       5.674   8.219  24.200  0.00  0.00     0.032 A 
HETATM   10  C   UNL     1       5.813  10.690  24.121  0.00  0.00     0.030 A 
HETATM   11  C   UNL     1       7.019   8.136  23.888  0.00  0.00     0.003 A 
HETATM   12  C   UNL     1       7.764   9.294  23.717  0.00  0.00     0.013 A 
HETATM   13  C   UNL     1       7.227  10.607  23.842  0.00  0.00    -0.010 A 
HETATM   14  C   UNL     1       4.790  11.694  24.265  0.00  0.00     0.065 C 
HETATM   15  N   UNL     1       3.573  11.164  24.403  0.00  0.00    -0.171 NA
HETATM   16  C   UNL     1       4.818  13.178  24.225  0.00  0.00     0.073 C 
BRANCH  13  17
HETATM   17  C   UNL     1       8.146  11.763  23.629  0.00  0.00    -0.006 A 
HETATM   18  C   UNL     1       9.187  12.103  24.478  0.00  0.00     0.129 A 
HETATM   19  N   UNL     1      10.052  13.144  24.330  0.00  0.00    -0.259 NA
HETATM   20  C   UNL     1       9.826  14.018  23.342  0.00  0.00     0.066 A 
HETATM   21  C   UNL     1      10.649  15.129  23.202  0.00  0.00     0.032 A 
HETATM   22  C   UNL     1       8.739  13.864  22.467  0.00  0.00    -0.007 A 
HETATM   23  C   UNL     1      10.372  16.131  22.269  0.00  0.00     0.002 A 
HETATM   24  C   UNL     1       9.255  16.019  21.449  0.00  0.00     0.001 A 
HETATM   25  C   UNL     1       8.454  14.879  21.527  0.00  0.00     0.014 A 
HETATM   26  C   UNL     1       7.953  12.699  22.590  0.00  0.00     0.027 A 
ENDBRANCH  13  17
ENDBRANCH   1   7
BRANCH   6  27
HETATM   27  N   UNL     1       2.193   6.733  27.972  0.00  0.00    -0.288 NA
HETATM   28  H   UNL     1       1.412   6.058  28.055  0.00  0.00     0.128 HD
BRANCH  27  29
HETATM   29  C   UNL     1       2.401   7.447  29.264  0.00  0.00     0.060 C 
HETATM   30  C   UNL     1       1.194   7.229  30.174  0.00  0.00     0.022 C 
HETATM   31  C   UNL     1       1.096   5.759  30.569  0.00  0.00     0.033 C 
HETATM   32  C   UNL     1       2.268   5.392  31.471  0.00  0.00     0.118 C 
HETATM   33  C   UNL     1       3.626   5.739  30.858  0.00  0.00     0.033 C 
HETATM   34  C   UNL     1       3.691   7.007  29.989  0.00  0.00     0.022 C 
BRANCH  32  35
HETATM   35  O   UNL     1       2.122   6.086  32.711  0.00  0.00    -0.396 OA
HETATM   36  H   UNL     1       2.340   7.020  32.547  0.00  0.00     0.210 HD
ENDBRANCH  32  35
ENDBRANCH  27  29
ENDBRANCH   6  27
BRANCH   4  37
HETATM   37  C   UNL     1      -0.637   7.309  27.192  0.00  0.00     0.251 C 
HETATM   38  O   UNL     1      -1.353   8.020  27.881  0.00  0.00    -0.268 OA
HETATM   39  N   UNL     1      -0.925   5.975  27.039  0.00  0.00    -0.366 N 
HETATM   40  H   UNL     1      -0.290   5.300  26.632  0.00  0.00     0.159 HD
HETATM   41  H   UNL     1      -1.731   5.611  27.534  0.00  0.00     0.159 HD
ENDBRANCH   4  37
TORSDOF 6
ENDMDL
MODEL 7
REMARK VINA RESULT:    -8.981      7.504     11.445
REMARK INTER + INTRA:         -13.511
REMARK INTER:                 -11.869
REMARK INTRA:                  -1.642
REMARK UNBOUND:                -1.642
REMARK  6 active torsions:
REMARK  status: ('A' for Active; 'I' for Inactive)
REMARK    1  A    between atoms: C_9  and  C_11 
REMARK    2  A    between atoms: N_17  and  C_21 
REMARK    3  A    between atoms: C_24  and  C_25 
REMARK       I    between atoms: C_25  and  N_27 
REMARK    4  A    between atoms: C_29  and  N_30 
REMARK    5  A    between atoms: N_30  and  C_31 
REMARK    6  A    between atoms: C_34  and  O_35 
ROOT
HETATM    1  C   UNL     1       5.199   6.173  19.693  0.00  0.00     0.060 C 
HETATM    2  C   UNL     1       6.204   5.345  20.202  0.00  0.00     0.033 C 
HETATM    3  C   UNL     1       6.478   4.120  19.599  0.00  0.00     0.021 C 
HETATM    4  C   UNL     1       5.799   3.732  18.432  0.00  0.00     0.053 C 
HETATM    5  C   UNL     1       4.477   5.767  18.570  0.00  0.00     0.056 C 
HETATM    6  C   UNL     1       4.818   4.604  17.870  0.00  0.00     0.026 C 
ENDROOT
BRANCH   1   7
HETATM    7  N   UNL     1       5.042   7.486  20.218  0.00  0.00    -0.233 N 
HETATM    8  C   UNL     1       4.972   8.713  19.570  0.00  0.00     0.072 A 
HETATM    9  C   UNL     1       4.740   9.013  18.216  0.00  0.00     0.032 A 
HETATM   10  C   UNL     1       5.137   9.709  20.560  0.00  0.00     0.030 A 
HETATM   11  C   UNL     1       4.695  10.341  17.833  0.00  0.00     0.003 A 
HETATM   12  C   UNL     1       4.889  11.342  18.774  0.00  0.00     0.013 A 
HETATM   13  C   UNL     1       5.139  11.094  20.154  0.00  0.00    -0.010 A 
HETATM   14  C   UNL     1       5.251   8.929  21.765  0.00  0.00     0.065 C 
HETATM   15  N   UNL     1       5.043   7.628  21.551  0.00  0.00    -0.171 NA
HETATM   16  C   UNL     1       5.486   9.293  23.185  0.00  0.00     0.073 C 
BRANCH  13  17
HETATM   17  C   UNL     1       5.327  12.270  21.053  0.00  0.00    -0.006 A 
HETATM   18  C   UNL     1       6.555  12.838  21.354  0.00  0.00     0.129 A 
HETATM   19  N   UNL     1       6.781  13.907  22.165  0.00  0.00    -0.259 NA
HETATM   20  C   UNL     1       5.748  14.406  22.855  0.00  0.00     0.066 A 
HETATM   21  C   UNL     1       5.955  15.455  23.744  0.00  0.00     0.032 A 
HETATM   22  C   UNL     1       4.460  13.859  22.738  0.00  0.00    -0.007 A 
HETATM   23  C   UNL     1       4.934  15.918  24.577  0.00  0.00     0.002 A 
HETATM   24  C   UNL     1       3.675  15.332  24.516  0.00  0.00     0.001 A 
HETATM   25  C   UNL     1       3.429  14.324  23.584  0.00  0.00     0.014 A 
HETATM   26  C   UNL     1       4.263  12.837  21.786  0.00  0.00     0.027 A 
ENDBRANCH  13  17
ENDBRANCH   1   7
BRANCH   6  27
HETATM   27  N   UNL     1       4.155   4.333  16.630  0.00  0.00    -0.288 NA
HETATM   28  H   UNL     1       4.882   4.383  15.893  0.00  0.00     0.128 HD
BRANCH  27  29
HETATM   29  C   UNL     1       3.025   5.251  16.307  0.00  0.00     0.060 C 
HETATM   30  C   UNL     1       3.344   6.032  15.033  0.00  0.00     0.022 C 
HETATM   31  C   UNL     1       3.409   5.083  13.841  0.00  0.00     0.033 C 
HETATM   32  C   UNL     1       2.020   4.524  13.554  0.00  0.00     0.118 C 
HETATM   33  C   UNL     1       1.374   3.873  14.779  0.00  0.00     0.033 C 
HETATM   34  C   UNL     1       1.681   4.509  16.145  0.00  0.00     0.022 C 
BRANCH  32  35
HETATM   35  O   UNL     1       1.188   5.588  13.093  0.00  0.00    -0.396 OA
HETATM   36  H   UNL     1       1.450   6.391  13.579  0.00  0.00     0.210 HD
ENDBRANCH  32  35
ENDBRANCH  27  29
ENDBRANCH   6  27
BRANCH   4  37
HETATM   37  C   UNL     1       6.212   2.468  17.743  0.00  0.00     0.251 C 
HETATM   38  O   UNL     1       5.921   1.370  18.195  0.00  0.00    -0.268 OA
HETATM   39  N   UNL     1       6.894   2.570  16.555  0.00  0.00    -0.366 N 
HETATM   40  H   UNL     1       7.315   3.425  16.214  0.00  0.00     0.159 HD
HETATM   41  H   UNL     1       7.160   1.709  16.092  0.00  0.00     0.159 HD
ENDBRANCH   4  37
TORSDOF 6
ENDMDL
MODEL 8
REMARK VINA RESULT:    -8.968      5.286      6.815
REMARK INTER + INTRA:         -13.494
REMARK INTER:                 -11.581
REMARK INTRA:                  -1.913
REMARK UNBOUND:                -1.642
REMARK  6 active torsions:
REMARK  status: ('A' for Active; 'I' for Inactive)
REMARK    1  A    between atoms: C_9  and  C_11 
REMARK    2  A    between atoms: N_17  and  C_21 
REMARK    3  A    between atoms: C_24  and  C_25 
REMARK       I    between atoms: C_25  and  N_27 
REMARK    4  A    between atoms: C_29  and  N_30 
REMARK    5  A    between atoms: N_30  and  C_31 
REMARK    6  A    between atoms: C_34  and  O_35 
ROOT
HETATM    1  C   UNL     1       6.308  11.425  21.029  0.00  0.00     0.060 C 
HETATM    2  C   UNL     1       5.344  12.289  21.557  0.00  0.00     0.033 C 
HETATM    3  C   UNL     1       5.726  13.489  22.152  0.00  0.00     0.021 C 
HETATM    4  C   UNL     1       7.075  13.879  22.168  0.00  0.00     0.053 C 
HETATM    5  C   UNL     1       7.657  11.777  21.095  0.00  0.00     0.056 C 
HETATM    6  C   UNL     1       8.056  13.031  21.571  0.00  0.00     0.026 C 
ENDROOT
BRANCH   1   7
HETATM    7  N   UNL     1       5.894  10.287  20.283  0.00  0.00    -0.233 N 
HETATM    8  C   UNL     1       5.101  10.194  19.146  0.00  0.00     0.072 A 
HETATM    9  C   UNL     1       4.715  11.184  18.225  0.00  0.00     0.032 A 
HETATM   10  C   UNL     1       4.741   8.833  19.007  0.00  0.00     0.030 A 
HETATM   11  C   UNL     1       3.928  10.814  17.150  0.00  0.00     0.003 A 
HETATM   12  C   UNL     1       3.528   9.493  17.004  0.00  0.00     0.013 A 
HETATM   13  C   UNL     1       3.881   8.454  17.912  0.00  0.00    -0.010 A 
HETATM   14  C   UNL     1       5.432   8.219  20.111  0.00  0.00     0.065 C 
HETATM   15  N   UNL     1       6.223   9.077  20.759  0.00  0.00    -0.171 NA
HETATM   16  C   UNL     1       5.484   6.824  20.619  0.00  0.00     0.073 C 
BRANCH  13  17
HETATM   17  C   UNL     1       3.381   7.077  17.628  0.00  0.00    -0.006 A 
HETATM   18  C   UNL     1       3.609   6.389  16.448  0.00  0.00     0.129 A 
HETATM   19  N   UNL     1       3.176   5.134  16.140  0.00  0.00    -0.259 NA
HETATM   20  C   UNL     1       2.342   4.527  16.992  0.00  0.00     0.066 A 
HETATM   21  C   UNL     1       1.828   3.274  16.678  0.00  0.00     0.032 A 
HETATM   22  C   UNL     1       1.932   5.151  18.181  0.00  0.00    -0.007 A 
HETATM   23  C   UNL     1       0.857   2.663  17.474  0.00  0.00     0.002 A 
HETATM   24  C   UNL     1       0.394   3.309  18.615  0.00  0.00     0.001 A 
HETATM   25  C   UNL     1       0.946   4.536  18.983  0.00  0.00     0.014 A 
HETATM   26  C   UNL     1       2.513   6.395  18.507  0.00  0.00     0.027 A 
ENDBRANCH  13  17
ENDBRANCH   1   7
BRANCH   6  27
HETATM   27  N   UNL     1       9.435  13.401  21.453  0.00  0.00    -0.288 NA
HETATM   28  H   UNL     1       9.682  13.290  20.453  0.00  0.00     0.128 HD
BRANCH  27  29
HETATM   29  C   UNL     1      10.372  12.617  22.308  0.00  0.00     0.060 C 
HETATM   30  C   UNL     1      11.790  13.163  22.153  0.00  0.00     0.022 C 
HETATM   31  C   UNL     1      11.868  14.581  22.712  0.00  0.00     0.033 C 
HETATM   32  C   UNL     1      11.684  14.547  24.224  0.00  0.00     0.118 C 
HETATM   33  C   UNL     1      10.406  13.823  24.655  0.00  0.00     0.033 C 
HETATM   34  C   UNL     1       9.967  12.623  23.798  0.00  0.00     0.022 C 
BRANCH  32  35
HETATM   35  O   UNL     1      12.812  13.892  24.805  0.00  0.00    -0.396 OA
HETATM   36  H   UNL     1      13.490  14.573  24.965  0.00  0.00     0.210 HD
ENDBRANCH  32  35
ENDBRANCH  27  29
ENDBRANCH   6  27
BRANCH   4  37
HETATM   37  C   UNL     1       7.428  15.233  22.702  0.00  0.00     0.251 C 
HETATM   38  O   UNL     1       8.362  15.876  22.244  0.00  0.00    -0.268 OA
HETATM   39  N   UNL     1       6.645  15.763  23.699  0.00  0.00    -0.366 N 
HETATM   40  H   UNL     1       5.975  15.229  24.238  0.00  0.00     0.159 HD
HETATM   41  H   UNL     1       6.887  16.683  24.045  0.00  0.00     0.159 HD
ENDBRANCH   4  37
TORSDOF 6
ENDMDL
MODEL 9
REMARK VINA RESULT:    -8.951      5.450     11.285
REMARK INTER + INTRA:         -13.472
REMARK INTER:                 -11.523
REMARK INTRA:                  -1.948
REMARK UNBOUND:                -1.642
REMARK  6 active torsions:
REMARK  status: ('A' for Active; 'I' for Inactive)
REMARK    1  A    between atoms: C_9  and  C_11 
REMARK    2  A    between atoms: N_17  and  C_21 
REMARK    3  A    between atoms: C_24  and  C_25 
REMARK       I    between atoms: C_25  and  N_27 
REMARK    4  A    between atoms: C_29  and  N_30 
REMARK    5  A    between atoms: N_30  and  C_31 
REMARK    6  A    between atoms: C_34  and  O_35 
ROOT
HETATM    1  C   UNL     1       6.467   8.474  23.053  0.00  0.00     0.060 C 
HETATM    2  C   UNL     1       6.448   7.155  23.518  0.00  0.00     0.033 C 
HETATM    3  C   UNL     1       5.622   6.209  22.916  0.00  0.00     0.021 C 
HETATM    4  C   UNL     1       4.851   6.548  21.792  0.00  0.00     0.053 C 
HETATM    5  C   UNL     1       5.658   8.834  21.975  0.00  0.00     0.056 C 
HETATM    6  C   UNL     1       4.917   7.877  21.272  0.00  0.00     0.026 C 
ENDROOT
BRANCH   1   7
HETATM    7  N   UNL     1       7.431   9.384  23.570  0.00  0.00    -0.233 N 
HETATM    8  C   UNL     1       7.278  10.675  24.061  0.00  0.00     0.072 A 
HETATM    9  C   UNL     1       6.121  11.359  24.472  0.00  0.00     0.032 A 
HETATM   10  C   UNL     1       8.573  11.239  24.141  0.00  0.00     0.030 A 
HETATM   11  C   UNL     1       6.253  12.650  24.951  0.00  0.00     0.003 A 
HETATM   12  C   UNL     1       7.505  13.244  25.008  0.00  0.00     0.013 A 
HETATM   13  C   UNL     1       8.707  12.601  24.596  0.00  0.00    -0.010 A 
HETATM   14  C   UNL     1       9.409  10.149  23.705  0.00  0.00     0.065 C 
HETATM   15  N   UNL     1       8.720   9.022  23.517  0.00  0.00    -0.171 NA
HETATM   16  C   UNL     1      10.874  10.024  23.492  0.00  0.00     0.073 C 
BRANCH  13  17
HETATM   17  C   UNL     1       9.985  13.362  24.715  0.00  0.00    -0.006 A 
HETATM   18  C   UNL     1      10.700  13.866  23.640  0.00  0.00     0.129 A 
HETATM   19  N   UNL     1      11.867  14.565  23.694  0.00  0.00    -0.259 NA
HETATM   20  C   UNL     1      12.475  14.689  24.880  0.00  0.00     0.066 A 
HETATM   21  C   UNL     1      13.702  15.338  24.961  0.00  0.00     0.032 A 
HETATM   22  C   UNL     1      11.923  14.131  26.044  0.00  0.00    -0.007 A 
HETATM   23  C   UNL     1      14.431  15.376  26.152  0.00  0.00     0.002 A 
HETATM   24  C   UNL     1      13.922  14.762  27.292  0.00  0.00     0.001 A 
HETATM   25  C   UNL     1      12.662  14.164  27.248  0.00  0.00     0.014 A 
HETATM   26  C   UNL     1      10.651  13.530  25.948  0.00  0.00     0.027 A 
ENDBRANCH  13  17
ENDBRANCH   1   7
BRANCH   6  27
HETATM   27  N   UNL     1       4.246   8.277  20.072  0.00  0.00    -0.288 NA
HETATM   28  H   UNL     1       3.545   7.542  19.870  0.00  0.00     0.128 HD
BRANCH  27  29
HETATM   29  C   UNL     1       5.136   8.484  18.893  0.00  0.00     0.060 C 
HETATM   30  C   UNL     1       5.328   7.161  18.154  0.00  0.00     0.022 C 
HETATM   31  C   UNL     1       4.004   6.703  17.549  0.00  0.00     0.033 C 
HETATM   32  C   UNL     1       3.594   7.657  16.433  0.00  0.00     0.118 C 
HETATM   33  C   UNL     1       3.552   9.120  16.881  0.00  0.00     0.033 C 
HETATM   34  C   UNL     1       4.599   9.556  17.921  0.00  0.00     0.022 C 
BRANCH  32  35
HETATM   35  O   UNL     1       4.521   7.521  15.356  0.00  0.00    -0.396 OA
HETATM   36  H   UNL     1       5.045   8.342  15.321  0.00  0.00     0.210 HD
ENDBRANCH  32  35
ENDBRANCH  27  29
ENDBRANCH   6  27
BRANCH   4  37
HETATM   37  C   UNL     1       4.076   5.472  21.097  0.00  0.00     0.251 C 
HETATM   38  O   UNL     1       4.633   4.500  20.607  0.00  0.00    -0.268 OA
HETATM   39  N   UNL     1       2.707   5.579  21.059  0.00  0.00    -0.366 N 
HETATM   40  H   UNL     1       2.198   6.424  21.284  0.00  0.00     0.159 HD
HETATM   41  H   UNL     1       2.193   4.840  20.595  0.00  0.00     0.159 HD
ENDBRANCH   4  37
TORSDOF 6
ENDMDL
