MODEL 1
REMARK VINA RESULT:    -8.965      0.000      0.000
REMARK INTER + INTRA:         -12.671
REMARK INTER:                 -11.397
REMARK INTRA:                  -1.274
REMARK UNBOUND:                -1.347
REMARK  5 active torsions:
REMARK  status: ('A' for Active; 'I' for Inactive)
REMARK    1  A    between atoms: C_7  and  C_8 
REMARK    2  A    between atoms: C_8  and  C_9 
REMARK    3  A    between atoms: C_16  and  C_20 
REMARK    4  A    between atoms: C_17  and  O_19 
REMARK       I    between atoms: C_20  and  N_22 
REMARK    5  A    between atoms: N_22  and  C_24 
ROOT
HETATM    1  C   UNL     1       4.074   7.913  19.109  0.00  0.00     0.071 A 
HETATM    2  N   UNL     1       5.213   8.094  18.422  0.00  0.00    -0.178 NA
HETATM    3  N   UNL     1       6.152   7.518  19.189  0.00  0.00    -0.277 N 
HETATM    4  H   UNL     1       7.113   7.535  18.866  0.00  0.00     0.189 HD
HETATM    5  C   UNL     1       4.302   7.195  20.319  0.00  0.00     0.020 A 
HETATM    6  C   UNL     1       5.680   7.029  20.377  0.00  0.00     0.065 A 
HETATM    7  C   UNL     1       3.508   6.724  21.383  0.00  0.00     0.035 C 
HETATM    8  C   UNL     1       4.139   6.146  22.499  0.00  0.00     0.066 C 
HETATM    9  C   UNL     1       5.540   6.137  22.575  0.00  0.00     0.083 C 
HETATM   10  C   UNL     1       6.340   6.510  21.492  0.00  0.00     0.069 C 
ENDROOT
BRANCH   8  11
HETATM   11  C   UNL     1       3.326   5.607  23.628  0.00  0.00     0.260 C 
HETATM   12  O   UNL     1       3.158   4.384  23.619  0.00  0.00    -0.267 OA
HETATM   13  N   UNL     1       2.861   6.451  24.660  0.00  0.00    -0.318 N 
HETATM   14  C   UNL     1       2.365   5.814  25.880  0.00  0.00     0.159 C 
BRANCH  13  15
HETATM   15  C   UNL     1       2.663   7.870  24.551  0.00  0.00     0.039 A 
HETATM   16  C   UNL     1       3.731   8.720  24.244  0.00  0.00     0.032 A 
HETATM   17  C   UNL     1       3.562  10.108  24.187  0.00  0.00     0.042 A 
HETATM   18  C   UNL     1       2.310  10.665  24.417  0.00  0.00     0.102 A 
HETATM   19  C   UNL     1       1.223   9.839  24.687  0.00  0.00     0.104 A 
HETATM   20  O   UNL     1       2.231  12.032  24.349  0.00  0.00    -0.346 OA
HETATM   21  C   UNL     1       1.390   8.446  24.727  0.00  0.00     0.069 A 
HETATM   22  O   UNL     1      -0.042  10.321  24.926  0.00  0.00    -0.346 OA
HETATM   23  C   UNL     1      -0.015  11.721  25.245  0.00  0.00     0.202 C 
HETATM   24  C   UNL     1       0.875  12.485  24.276  0.00  0.00     0.202 C 
ENDBRANCH  13  15
ENDBRANCH   8  11
BRANCH   9  25
HETATM   25  O   UNL     1       6.217   5.806  23.720  0.00  0.00    -0.360 OA
HETATM   26  H   UNL     1       7.175   5.916  23.526  0.00  0.00     0.217 HD
ENDBRANCH   9  25
BRANCH   1  27
HETATM   27  C   UNL     1       2.795   8.557  18.668  0.00  0.00     0.100 C 
BRANCH  27  28
HETATM   28  C   UNL     1       1.950   7.576  17.888  0.00  0.00    -0.052 A 
HETATM   29  C   UNL     1       1.023   6.704  18.478  0.00  0.00     0.014 A 
HETATM   30  C   UNL     1       0.357   5.739  17.712  0.00  0.00    -0.061 A 
HETATM   31  C   UNL     1      -0.431   4.655  18.385  0.00  0.00     0.048 C 
HETATM   32  C   UNL     1       0.528   5.722  16.324  0.00  0.00     0.007 A 
HETATM   33  C   UNL     1       1.372   6.643  15.711  0.00  0.00     0.001 A 
HETATM   34  C   UNL     1       2.085   7.555  16.489  0.00  0.00     0.007 A 
ENDBRANCH  27  28
ENDBRANCH   1  27
TORSDOF 5
ENDMDL
MODEL 2
REMARK VINA RESULT:    -8.469      2.817      7.637
REMARK INTER + INTRA:         -12.044
REMARK INTER:                 -10.567
REMARK INTRA:                  -1.477
REMARK UNBOUND:                -1.347
REMARK  5 active torsions:
REMARK  status: ('A' for Active; 'I' for Inactive)
REMARK    1  A    between atoms: C_7  and  C_8 
REMARK    2  A    between atoms: C_8  and  C_9 
REMARK    3  A    between atoms: C_16  and  C_20 
REMARK    4  A    between atoms: C_17  and  O_19 
REMARK       I    between atoms: C_20  and  N_22 
REMARK    5  A    between atoms: N_22  and  C_24 
ROOT
HETATM    1  C   UNL     1       4.334   6.947  23.326  0.00  0.00     0.071 A 
HETATM    2  N   UNL     1       5.496   6.451  23.780  0.00  0.00    -0.178 NA
HETATM    3  N   UNL     1       6.235   6.283  22.672  0.00  0.00    -0.277 N 
HETATM    4  H   UNL     1       7.171   5.908  22.772  0.00  0.00     0.189 HD
HETATM    5  C   UNL     1       4.353   7.109  21.910  0.00  0.00     0.020 A 
HETATM    6  C   UNL     1       5.576   6.587  21.511  0.00  0.00     0.065 A 
HETATM    7  C   UNL     1       3.456   7.582  20.932  0.00  0.00     0.035 C 
HETATM    8  C   UNL     1       3.804   7.464  19.575  0.00  0.00     0.066 C 
HETATM    9  C   UNL     1       4.986   6.795  19.219  0.00  0.00     0.083 C 
HETATM   10  C   UNL     1       5.929   6.405  20.173  0.00  0.00     0.069 C 
ENDROOT
BRANCH   8  11
HETATM   11  C   UNL     1       2.893   7.985  18.516  0.00  0.00     0.260 C 
HETATM   12  O   UNL     1       2.945   9.206  18.330  0.00  0.00    -0.267 OA
HETATM   13  N   UNL     1       2.095   7.112  17.745  0.00  0.00    -0.318 N 
HETATM   14  C   UNL     1       1.489   7.651  16.528  0.00  0.00     0.159 C 
BRANCH  13  15
HETATM   15  C   UNL     1       1.679   5.795  18.141  0.00  0.00     0.039 A 
HETATM   16  C   UNL     1       0.625   5.617  19.043  0.00  0.00     0.032 A 
HETATM   17  C   UNL     1       0.246   4.342  19.476  0.00  0.00     0.042 A 
HETATM   18  C   UNL     1       0.906   3.219  18.992  0.00  0.00     0.102 A 
HETATM   19  C   UNL     1       1.933   3.366  18.064  0.00  0.00     0.104 A 
HETATM   20  O   UNL     1       0.477   2.009  19.471  0.00  0.00    -0.346 OA
HETATM   21  C   UNL     1       2.301   4.645  17.617  0.00  0.00     0.069 A 
HETATM   22  O   UNL     1       2.629   2.301  17.545  0.00  0.00    -0.346 OA
HETATM   23  C   UNL     1       2.446   1.120  18.341  0.00  0.00     0.202 C 
HETATM   24  C   UNL     1       0.980   0.918  18.691  0.00  0.00     0.202 C 
ENDBRANCH  13  15
ENDBRANCH   8  11
BRANCH   9  25
HETATM   25  O   UNL     1       5.274   6.439  17.926  0.00  0.00    -0.360 OA
HETATM   26  H   UNL     1       5.329   7.274  17.409  0.00  0.00     0.217 HD
ENDBRANCH   9  25
BRANCH   1  27
HETATM   27  C   UNL     1       3.161   7.127  24.241  0.00  0.00     0.100 C 
BRANCH  27  28
HETATM   28  C   UNL     1       2.794   8.589  24.349  0.00  0.00    -0.052 A 
HETATM   29  C   UNL     1       1.563   9.050  24.837  0.00  0.00     0.014 A 
HETATM   30  C   UNL     1       1.240  10.413  24.802  0.00  0.00    -0.061 A 
HETATM   31  C   UNL     1      -0.161  10.864  25.084  0.00  0.00     0.048 C 
HETATM   32  C   UNL     1       2.204  11.338  24.386  0.00  0.00     0.007 A 
HETATM   33  C   UNL     1       3.465  10.905  23.989  0.00  0.00     0.001 A 
HETATM   34  C   UNL     1       3.753   9.541  23.961  0.00  0.00     0.007 A 
ENDBRANCH  27  28
ENDBRANCH   1  27
TORSDOF 5
ENDMDL
MODEL 3
REMARK VINA RESULT:    -8.337      3.765      6.597
REMARK INTER + INTRA:         -11.878
REMARK INTER:                  -9.775
REMARK INTRA:                  -2.103
REMARK UNBOUND:                -1.347
REMARK  5 active torsions:
REMARK  status: ('A' for Active; 'I' for Inactive)
REMARK    1  A    between atoms: C_7  and  C_8 
REMARK    2  A    between atoms: C_8  and  C_9 
REMARK    3  A    between atoms: C_16  and  C_20 
REMARK    4  A    between atoms: C_17  and  O_19 
REMARK       I    between atoms: C_20  and  N_22 
REMARK    5  A    between atoms: N_22  and  C_24 
ROOT
HETATM    1  C   UNL     1       1.373   5.025  16.322  0.00  0.00     0.071 A 
HETATM    2  N   UNL     1       0.250   5.565  15.819  0.00  0.00    -0.178 NA
HETATM    3  N   UNL     1       0.323   6.858  16.175  0.00  0.00    -0.277 N 
HETATM    4  H   UNL     1      -0.435   7.474  15.901  0.00  0.00     0.189 HD
HETATM    5  C   UNL     1       2.170   6.002  16.986  0.00  0.00     0.020 A 
HETATM    6  C   UNL     1       1.412   7.165  16.943  0.00  0.00     0.065 A 
HETATM    7  C   UNL     1       3.406   6.012  17.660  0.00  0.00     0.035 C 
HETATM    8  C   UNL     1       3.815   7.187  18.316  0.00  0.00     0.066 C 
HETATM    9  C   UNL     1       2.947   8.289  18.367  0.00  0.00     0.083 C 
HETATM   10  C   UNL     1       1.762   8.331  17.628  0.00  0.00     0.069 C 
ENDROOT
BRANCH   8  11
HETATM   11  C   UNL     1       5.135   7.243  19.010  0.00  0.00     0.260 C 
HETATM   12  O   UNL     1       5.998   7.923  18.446  0.00  0.00    -0.267 OA
HETATM   13  N   UNL     1       5.328   6.615  20.259  0.00  0.00    -0.318 N 
HETATM   14  C   UNL     1       6.522   6.983  21.021  0.00  0.00     0.159 C 
BRANCH  13  15
HETATM   15  C   UNL     1       4.555   5.517  20.769  0.00  0.00     0.039 A 
HETATM   16  C   UNL     1       3.416   5.744  21.550  0.00  0.00     0.032 A 
HETATM   17  C   UNL     1       2.686   4.683  22.096  0.00  0.00     0.042 A 
HETATM   18  C   UNL     1       3.074   3.372  21.848  0.00  0.00     0.102 A 
HETATM   19  C   UNL     1       4.181   3.118  21.044  0.00  0.00     0.104 A 
HETATM   20  O   UNL     1       2.308   2.393  22.425  0.00  0.00    -0.346 OA
HETATM   21  C   UNL     1       4.903   4.182  20.482  0.00  0.00     0.069 A 
HETATM   22  O   UNL     1       4.622   1.848  20.759  0.00  0.00    -0.346 OA
HETATM   23  C   UNL     1       4.073   0.887  21.674  0.00  0.00     0.202 C 
HETATM   24  C   UNL     1       2.580   1.104  21.863  0.00  0.00     0.202 C 
ENDBRANCH  13  15
ENDBRANCH   8  11
BRANCH   9  25
HETATM   25  O   UNL     1       3.175   9.374  19.175  0.00  0.00    -0.360 OA
HETATM   26  H   UNL     1       3.611  10.055  18.616  0.00  0.00     0.217 HD
ENDBRANCH   9  25
BRANCH   1  27
HETATM   27  C   UNL     1       1.602   3.546  16.282  0.00  0.00     0.100 C 
BRANCH  27  28
HETATM   28  C   UNL     1       0.691   2.842  17.262  0.00  0.00    -0.052 A 
HETATM   29  C   UNL     1      -0.398   2.045  16.881  0.00  0.00     0.014 A 
HETATM   30  C   UNL     1      -1.272   1.517  17.840  0.00  0.00    -0.061 A 
HETATM   31  C   UNL     1      -2.565   0.888  17.416  0.00  0.00     0.048 C 
HETATM   32  C   UNL     1      -0.988   1.686  19.199  0.00  0.00     0.007 A 
HETATM   33  C   UNL     1       0.143   2.393  19.595  0.00  0.00     0.001 A 
HETATM   34  C   UNL     1       0.969   2.976  18.634  0.00  0.00     0.007 A 
ENDBRANCH  27  28
ENDBRANCH   1  27
TORSDOF 5
ENDMDL
MODEL 4
REMARK VINA RESULT:    -8.252      3.143      7.434
REMARK INTER + INTRA:         -11.770
REMARK INTER:                 -10.002
REMARK INTRA:                  -1.767
REMARK UNBOUND:                -1.347
REMARK  5 active torsions:
REMARK  status: ('A' for Active; 'I' for Inactive)
REMARK    1  A    between atoms: C_7  and  C_8 
REMARK    2  A    between atoms: C_8  and  C_9 
REMARK    3  A    between atoms: C_16  and  C_20 
REMARK    4  A    between atoms: C_17  and  O_19 
REMARK       I    between atoms: C_20  and  N_22 
REMARK    5  A    between atoms: N_22  and  C_24 
ROOT
HETATM    1  C   UNL     1       1.536   8.854  24.724  0.00  0.00     0.071 A 
HETATM    2  N   UNL     1       2.198  10.022  24.761  0.00  0.00    -0.178 NA
HETATM    3  N   UNL     1       3.485   9.672  24.607  0.00  0.00    -0.277 N 
HETATM    4  H   UNL     1       4.185  10.405  24.606  0.00  0.00     0.189 HD
HETATM    5  C   UNL     1       2.422   7.757  24.524  0.00  0.00     0.020 A 
HETATM    6  C   UNL     1       3.692   8.320  24.538  0.00  0.00     0.065 A 
HETATM    7  C   UNL     1       2.293   6.360  24.393  0.00  0.00     0.035 C 
HETATM    8  C   UNL     1       3.455   5.571  24.332  0.00  0.00     0.066 C 
HETATM    9  C   UNL     1       4.711   6.175  24.498  0.00  0.00     0.083 C 
HETATM   10  C   UNL     1       4.864   7.563  24.534  0.00  0.00     0.069 C 
ENDROOT
BRANCH   8  11
HETATM   11  C   UNL     1       3.353   4.093  24.159  0.00  0.00     0.260 C 
HETATM   12  O   UNL     1       3.446   3.433  25.199  0.00  0.00    -0.267 OA
HETATM   13  N   UNL     1       3.094   3.523  22.894  0.00  0.00    -0.318 N 
HETATM   14  C   UNL     1       2.686   2.118  22.858  0.00  0.00     0.159 C 
BRANCH  13  15
HETATM   15  C   UNL     1       3.367   4.144  21.627  0.00  0.00     0.039 A 
HETATM   16  C   UNL     1       4.658   4.133  21.087  0.00  0.00     0.032 A 
HETATM   17  C   UNL     1       4.947   4.780  19.881  0.00  0.00     0.042 A 
HETATM   18  C   UNL     1       3.937   5.431  19.183  0.00  0.00     0.102 A 
HETATM   19  C   UNL     1       2.636   5.424  19.679  0.00  0.00     0.104 A 
HETATM   20  O   UNL     1       4.305   6.045  18.014  0.00  0.00    -0.346 OA
HETATM   21  C   UNL     1       2.344   4.760  20.881  0.00  0.00     0.069 A 
HETATM   22  O   UNL     1       1.590   6.049  19.043  0.00  0.00    -0.346 OA
HETATM   23  C   UNL     1       2.060   6.997  18.072  0.00  0.00     0.202 C 
HETATM   24  C   UNL     1       3.168   6.400  17.218  0.00  0.00     0.202 C 
ENDBRANCH  13  15
ENDBRANCH   8  11
BRANCH   9  25
HETATM   25  O   UNL     1       5.861   5.451  24.681  0.00  0.00    -0.360 OA
HETATM   26  H   UNL     1       5.711   4.571  24.268  0.00  0.00     0.217 HD
ENDBRANCH   9  25
BRANCH   1  27
HETATM   27  C   UNL     1       0.069   8.789  25.023  0.00  0.00     0.100 C 
BRANCH  27  28
HETATM   28  C   UNL     1      -0.193   9.154  26.466  0.00  0.00    -0.052 A 
HETATM   29  C   UNL     1       0.398   8.499  27.557  0.00  0.00     0.014 A 
HETATM   30  C   UNL     1       0.023   8.808  28.871  0.00  0.00    -0.061 A 
HETATM   31  C   UNL     1       0.466   7.935  30.006  0.00  0.00     0.048 C 
HETATM   32  C   UNL     1      -0.863   9.865  29.103  0.00  0.00     0.007 A 
HETATM   33  C   UNL     1      -1.386  10.589  28.036  0.00  0.00     0.001 A 
HETATM   34  C   UNL     1      -1.061  10.228  26.728  0.00  0.00     0.007 A 
ENDBRANCH  27  28
ENDBRANCH   1  27
TORSDOF 5
ENDMDL
MODEL 5
REMARK VINA RESULT:    -8.224      3.190      5.821
REMARK INTER + INTRA:         -11.735
REMARK INTER:                  -9.490
REMARK INTRA:                  -2.244
REMARK UNBOUND:                -1.347
REMARK  5 active torsions:
REMARK  status: ('A' for Active; 'I' for Inactive)
REMARK    1  A    between atoms: C_7  and  C_8 
REMARK    2  A    between atoms: C_8  and  C_9 
REMARK    3  A    between atoms: C_16  and  C_20 
REMARK    4  A    between atoms: C_17  and  O_19 
REMARK       I    between atoms: C_20  and  N_22 
REMARK    5  A    between atoms: N_22  and  C_24 
ROOT
HETATM    1  C   UNL     1       4.520   8.133  21.894  0.00  0.00     0.071 A 
HETATM    2  N   UNL     1       3.800   9.101  22.484  0.00  0.00    -0.178 NA
HETATM    3  N   UNL     1       3.117   8.459  23.446  0.00  0.00    -0.277 N 
HETATM    4  H   UNL     1       2.491   9.000  24.032  0.00  0.00     0.189 HD
HETATM    5  C   UNL     1       4.299   6.867  22.511  0.00  0.00     0.020 A 
HETATM    6  C   UNL     1       3.315   7.105  23.462  0.00  0.00     0.065 A 
HETATM    7  C   UNL     1       4.776   5.555  22.330  0.00  0.00     0.035 C 
HETATM    8  C   UNL     1       4.205   4.513  23.082  0.00  0.00     0.066 C 
HETATM    9  C   UNL     1       3.113   4.783  23.922  0.00  0.00     0.083 C 
HETATM   10  C   UNL     1       2.689   6.088  24.185  0.00  0.00     0.069 C 
ENDROOT
BRANCH   8  11
HETATM   11  C   UNL     1       4.710   3.116  22.939  0.00  0.00     0.260 C 
HETATM   12  O   UNL     1       5.605   2.797  23.729  0.00  0.00    -0.267 OA
HETATM   13  N   UNL     1       4.134   2.224  22.010  0.00  0.00    -0.318 N 
HETATM   14  C   UNL     1       4.451   0.803  22.154  0.00  0.00     0.159 C 
BRANCH  13  15
HETATM   15  C   UNL     1       3.409   2.603  20.828  0.00  0.00     0.039 A 
HETATM   16  C   UNL     1       3.950   2.388  19.556  0.00  0.00     0.032 A 
HETATM   17  C   UNL     1       3.277   2.800  18.401  0.00  0.00     0.042 A 
HETATM   18  C   UNL     1       2.035   3.417  18.503  0.00  0.00     0.102 A 
HETATM   19  C   UNL     1       1.458   3.608  19.755  0.00  0.00     0.104 A 
HETATM   20  O   UNL     1       1.447   3.795  17.325  0.00  0.00    -0.346 OA
HETATM   21  C   UNL     1       2.126   3.179  20.912  0.00  0.00     0.069 A 
HETATM   22  O   UNL     1       0.236   4.212  19.930  0.00  0.00    -0.346 OA
HETATM   23  C   UNL     1      -0.158   4.943  18.758  0.00  0.00     0.202 C 
HETATM   24  C   UNL     1       0.062   4.117  17.500  0.00  0.00     0.202 C 
ENDBRANCH  13  15
ENDBRANCH   8  11
BRANCH   9  25
HETATM   25  O   UNL     1       2.363   3.792  24.502  0.00  0.00    -0.360 OA
HETATM   26  H   UNL     1       2.133   4.104  25.406  0.00  0.00     0.217 HD
ENDBRANCH   9  25
BRANCH   1  27
HETATM   27  C   UNL     1       5.309   8.407  20.651  0.00  0.00     0.100 C 
BRANCH  27  28
HETATM   28  C   UNL     1       4.620   7.810  19.445  0.00  0.00    -0.052 A 
HETATM   29  C   UNL     1       3.451   8.335  18.874  0.00  0.00     0.014 A 
HETATM   30  C   UNL     1       2.798   7.667  17.830  0.00  0.00    -0.061 A 
HETATM   31  C   UNL     1       1.427   8.095  17.404  0.00  0.00     0.048 C 
HETATM   32  C   UNL     1       3.383   6.526  17.270  0.00  0.00     0.007 A 
HETATM   33  C   UNL     1       4.592   6.046  17.761  0.00  0.00     0.001 A 
HETATM   34  C   UNL     1       5.200   6.677  18.847  0.00  0.00     0.007 A 
ENDBRANCH  27  28
ENDBRANCH   1  27
TORSDOF 5
ENDMDL
MODEL 6
REMARK VINA RESULT:    -8.146      3.983      5.680
REMARK INTER + INTRA:         -11.636
REMARK INTER:                 -10.120
REMARK INTRA:                  -1.516
REMARK UNBOUND:                -1.347
REMARK  5 active torsions:
REMARK  status: ('A' for Active; 'I' for Inactive)
REMARK    1  A    between atoms: C_7  and  C_8 
REMARK    2  A    between atoms: C_8  and  C_9 
REMARK    3  A    between atoms: C_16  and  C_20 
REMARK    4  A    between atoms: C_17  and  O_19 
REMARK       I    between atoms: C_20  and  N_22 
REMARK    5  A    between atoms: N_22  and  C_24 
ROOT
HETATM    1  C   UNL     1       4.326   4.987  24.033  0.00  0.00     0.071 A 
HETATM    2  N   UNL     1       3.516   4.128  23.394  0.00  0.00    -0.178 NA
HETATM    3  N   UNL     1       2.569   3.836  24.301  0.00  0.00    -0.277 N 
HETATM    4  H   UNL     1       1.835   3.189  24.037  0.00  0.00     0.189 HD
HETATM    5  C   UNL     1       3.868   5.252  25.356  0.00  0.00     0.020 A 
HETATM    6  C   UNL     1       2.769   4.419  25.523  0.00  0.00     0.065 A 
HETATM    7  C   UNL     1       4.294   6.052  26.434  0.00  0.00     0.035 C 
HETATM    8  C   UNL     1       3.625   5.946  27.666  0.00  0.00     0.066 C 
HETATM    9  C   UNL     1       2.616   4.983  27.826  0.00  0.00     0.083 C 
HETATM   10  C   UNL     1       2.118   4.250  26.746  0.00  0.00     0.069 C 
ENDROOT
BRANCH   8  11
HETATM   11  C   UNL     1       4.028   6.804  28.819  0.00  0.00     0.260 C 
HETATM   12  O   UNL     1       4.882   6.315  29.565  0.00  0.00    -0.267 OA
HETATM   13  N   UNL     1       3.508   8.107  28.975  0.00  0.00    -0.318 N 
HETATM   14  C   UNL     1       4.185   8.993  29.921  0.00  0.00     0.159 C 
BRANCH  13  15
HETATM   15  C   UNL     1       2.269   8.582  28.424  0.00  0.00     0.039 A 
HETATM   16  C   UNL     1       1.151   8.781  29.241  0.00  0.00     0.032 A 
HETATM   17  C   UNL     1      -0.075   9.193  28.707  0.00  0.00     0.042 A 
HETATM   18  C   UNL     1      -0.193   9.434  27.343  0.00  0.00     0.102 A 
HETATM   19  C   UNL     1       0.914   9.280  26.515  0.00  0.00     0.104 A 
HETATM   20  O   UNL     1      -1.429   9.828  26.902  0.00  0.00    -0.346 OA
HETATM   21  C   UNL     1       2.148   8.884  27.053  0.00  0.00     0.069 A 
HETATM   22  O   UNL     1       0.868   9.499  25.158  0.00  0.00    -0.346 OA
HETATM   23  C   UNL     1      -0.484   9.510  24.676  0.00  0.00     0.202 C 
HETATM   24  C   UNL     1      -1.376  10.357  25.572  0.00  0.00     0.202 C 
ENDBRANCH  13  15
ENDBRANCH   8  11
BRANCH   9  25
HETATM   25  O   UNL     1       2.083   4.665  29.049  0.00  0.00    -0.360 OA
HETATM   26  H   UNL     1       2.602   5.161  29.721  0.00  0.00     0.217 HD
ENDBRANCH   9  25
BRANCH   1  27
HETATM   27  C   UNL     1       5.615   5.437  23.415  0.00  0.00     0.100 C 
BRANCH  27  28
HETATM   28  C   UNL     1       5.382   6.627  22.513  0.00  0.00    -0.052 A 
HETATM   29  C   UNL     1       6.075   6.844  21.313  0.00  0.00     0.014 A 
HETATM   30  C   UNL     1       5.896   8.026  20.583  0.00  0.00    -0.061 A 
HETATM   31  C   UNL     1       6.820   8.360  19.450  0.00  0.00     0.048 C 
HETATM   32  C   UNL     1       4.927   8.948  20.992  0.00  0.00     0.007 A 
HETATM   33  C   UNL     1       4.162   8.703  22.128  0.00  0.00     0.001 A 
HETATM   34  C   UNL     1       4.396   7.557  22.888  0.00  0.00     0.007 A 
ENDBRANCH  27  28
ENDBRANCH   1  27
TORSDOF 5
ENDMDL
MODEL 7
REMARK VINA RESULT:    -8.138      2.913      6.975
REMARK INTER + INTRA:         -11.626
REMARK INTER:                 -10.453
REMARK INTRA:                  -1.173
REMARK UNBOUND:                -1.347
REMARK  5 active torsions:
REMARK  status: ('A' for Active; 'I' for Inactive)
REMARK    1  A    between atoms: C_7  and  C_8 
REMARK    2  A    between atoms: C_8  and  C_9 
REMARK    3  A    between atoms: C_16  and  C_20 
REMARK    4  A    between atoms: C_17  and  O_19 
REMARK       I    between atoms: C_20  and  N_22 
REMARK    5  A    between atoms: N_22  and  C_24 
ROOT
HETATM    1  C   UNL     1       3.493   9.299  23.411  0.00  0.00     0.071 A 
HETATM    2  N   UNL     1       3.910  10.453  22.866  0.00  0.00    -0.178 NA
HETATM    3  N   UNL     1       4.577  10.072  21.765  0.00  0.00    -0.277 N 
HETATM    4  H   UNL     1       4.993  10.790  21.182  0.00  0.00     0.189 HD
HETATM    5  C   UNL     1       3.889   8.178  22.627  0.00  0.00     0.020 A 
HETATM    6  C   UNL     1       4.665   8.715  21.609  0.00  0.00     0.065 A 
HETATM    7  C   UNL     1       3.724   6.781  22.701  0.00  0.00     0.035 C 
HETATM    8  C   UNL     1       4.394   5.966  21.772  0.00  0.00     0.066 C 
HETATM    9  C   UNL     1       5.284   6.548  20.855  0.00  0.00     0.083 C 
HETATM   10  C   UNL     1       5.387   7.933  20.705  0.00  0.00     0.069 C 
ENDROOT
BRANCH   8  11
HETATM   11  C   UNL     1       4.215   4.485  21.801  0.00  0.00     0.260 C 
HETATM   12  O   UNL     1       5.091   3.860  22.409  0.00  0.00    -0.267 OA
HETATM   13  N   UNL     1       3.076   3.877  21.231  0.00  0.00    -0.318 N 
HETATM   14  C   UNL     1       2.810   2.482  21.582  0.00  0.00     0.159 C 
BRANCH  13  15
HETATM   15  C   UNL     1       2.255   4.447  20.198  0.00  0.00     0.039 A 
HETATM   16  C   UNL     1       0.918   4.776  20.447  0.00  0.00     0.032 A 
HETATM   17  C   UNL     1       0.095   5.282  19.435  0.00  0.00     0.042 A 
HETATM   18  C   UNL     1       0.607   5.488  18.160  0.00  0.00     0.102 A 
HETATM   19  C   UNL     1       1.944   5.204  17.897  0.00  0.00     0.104 A 
HETATM   20  O   UNL     1      -0.267   5.980  17.227  0.00  0.00    -0.346 OA
HETATM   21  C   UNL     1       2.774   4.713  18.916  0.00  0.00     0.069 A 
HETATM   22  O   UNL     1       2.516   5.382  16.660  0.00  0.00    -0.346 OA
HETATM   23  C   UNL     1       1.518   5.502  15.635  0.00  0.00     0.202 C 
HETATM   24  C   UNL     1       0.412   6.457  16.059  0.00  0.00     0.202 C 
ENDBRANCH  13  15
ENDBRANCH   8  11
BRANCH   9  25
HETATM   25  O   UNL     1       6.139   5.806  20.081  0.00  0.00    -0.360 OA
HETATM   26  H   UNL     1       6.933   6.365  19.921  0.00  0.00     0.217 HD
ENDBRANCH   9  25
BRANCH   1  27
HETATM   27  C   UNL     1       2.838   9.275  24.758  0.00  0.00     0.100 C 
BRANCH  27  28
HETATM   28  C   UNL     1       1.585  10.121  24.754  0.00  0.00    -0.052 A 
HETATM   29  C   UNL     1       1.577  11.501  24.504  0.00  0.00     0.014 A 
HETATM   30  C   UNL     1       0.399  12.248  24.631  0.00  0.00    -0.061 A 
HETATM   31  C   UNL     1       0.449  13.746  24.614  0.00  0.00     0.048 C 
HETATM   32  C   UNL     1      -0.808  11.590  24.892  0.00  0.00     0.007 A 
HETATM   33  C   UNL     1      -0.834  10.208  25.047  0.00  0.00     0.001 A 
HETATM   34  C   UNL     1       0.356   9.481  24.989  0.00  0.00     0.007 A 
ENDBRANCH  27  28
ENDBRANCH   1  27
TORSDOF 5
ENDMDL
MODEL 8
REMARK VINA RESULT:    -8.018      2.687      7.506
REMARK INTER + INTRA:         -11.474
REMARK INTER:                 -10.127
REMARK INTRA:                  -1.347
REMARK UNBOUND:                -1.347
REMARK  5 active torsions:
REMARK  status: ('A' for Active; 'I' for Inactive)
REMARK    1  A    between atoms: C_7  and  C_8 
REMARK    2  A    between atoms: C_8  and  C_9 
REMARK    3  A    between atoms: C_16  and  C_20 
REMARK    4  A    between atoms: C_17  and  O_19 
REMARK       I    between atoms: C_20  and  N_22 
REMARK    5  A    between atoms: N_22  and  C_24 
ROOT
HETATM    1  C   UNL     1       4.116   6.173  23.454  0.00  0.00     0.071 A 
HETATM    2  N   UNL     1       5.300   5.807  23.970  0.00  0.00    -0.178 NA
HETATM    3  N   UNL     1       6.177   6.057  22.984  0.00  0.00    -0.277 N 
HETATM    4  H   UNL     1       7.156   5.851  23.149  0.00  0.00     0.189 HD
HETATM    5  C   UNL     1       4.257   6.678  22.129  0.00  0.00     0.020 A 
HETATM    6  C   UNL     1       5.602   6.508  21.827  0.00  0.00     0.065 A 
HETATM    7  C   UNL     1       3.394   7.200  21.146  0.00  0.00     0.035 C 
HETATM    8  C   UNL     1       3.909   7.486  19.869  0.00  0.00     0.066 C 
HETATM    9  C   UNL     1       5.241   7.157  19.570  0.00  0.00     0.083 C 
HETATM   10  C   UNL     1       6.134   6.729  20.555  0.00  0.00     0.069 C 
ENDROOT
BRANCH   8  11
HETATM   11  C   UNL     1       3.030   8.071  18.816  0.00  0.00     0.260 C 
HETATM   12  O   UNL     1       3.004   9.306  18.778  0.00  0.00    -0.267 OA
HETATM   13  N   UNL     1       2.348   7.248  17.894  0.00  0.00    -0.318 N 
HETATM   14  C   UNL     1       1.781   7.889  16.708  0.00  0.00     0.159 C 
BRANCH  13  15
HETATM   15  C   UNL     1       2.005   5.868  18.103  0.00  0.00     0.039 A 
HETATM   16  C   UNL     1       2.948   4.856  17.892  0.00  0.00     0.032 A 
HETATM   17  C   UNL     1       2.611   3.506  18.042  0.00  0.00     0.042 A 
HETATM   18  C   UNL     1       1.325   3.150  18.428  0.00  0.00     0.102 A 
HETATM   19  C   UNL     1       0.379   4.139  18.680  0.00  0.00     0.104 A 
HETATM   20  O   UNL     1       1.076   1.808  18.545  0.00  0.00    -0.346 OA
HETATM   21  C   UNL     1       0.722   5.493  18.547  0.00  0.00     0.069 A 
HETATM   22  O   UNL     1      -0.911   3.859  19.064  0.00  0.00    -0.346 OA
HETATM   23  C   UNL     1      -1.252   2.491  18.790  0.00  0.00     0.202 C 
HETATM   24  C   UNL     1      -0.146   1.551  19.246  0.00  0.00     0.202 C 
ENDBRANCH  13  15
ENDBRANCH   8  11
BRANCH   9  25
HETATM   25  O   UNL     1       5.742   7.190  18.294  0.00  0.00    -0.360 OA
HETATM   26  H   UNL     1       5.993   8.123  18.113  0.00  0.00     0.217 HD
ENDBRANCH   9  25
BRANCH   1  27
HETATM   27  C   UNL     1       2.838   5.901  24.186  0.00  0.00     0.100 C 
BRANCH  27  28
HETATM   28  C   UNL     1       2.204   7.195  24.643  0.00  0.00    -0.052 A 
HETATM   29  C   UNL     1       2.699   8.465  24.314  0.00  0.00     0.014 A 
HETATM   30  C   UNL     1       2.134   9.622  24.867  0.00  0.00    -0.061 A 
HETATM   31  C   UNL     1       2.824  10.944  24.715  0.00  0.00     0.048 C 
HETATM   32  C   UNL     1       0.988   9.517  25.661  0.00  0.00     0.007 A 
HETATM   33  C   UNL     1       0.426   8.270  25.919  0.00  0.00     0.001 A 
HETATM   34  C   UNL     1       1.037   7.118  25.423  0.00  0.00     0.007 A 
ENDBRANCH  27  28
ENDBRANCH   1  27
TORSDOF 5
ENDMDL
MODEL 9
REMARK VINA RESULT:    -8.000      3.517      5.380
REMARK INTER + INTRA:         -11.452
REMARK INTER:                  -9.600
REMARK INTRA:                  -1.853
REMARK UNBOUND:                -1.347
REMARK  5 active torsions:
REMARK  status: ('A' for Active; 'I' for Inactive)
REMARK    1  A    between atoms: C_7  and  C_8 
REMARK    2  A    between atoms: C_8  and  C_9 
REMARK    3  A    between atoms: C_16  and  C_20 
REMARK    4  A    between atoms: C_17  and  O_19 
REMARK       I    between atoms: C_20  and  N_22 
REMARK    5  A    between atoms: N_22  and  C_24 
ROOT
HETATM    1  C   UNL     1       0.560   4.070  18.339  0.00  0.00     0.071 A 
HETATM    2  N   UNL     1      -0.659   4.430  17.907  0.00  0.00    -0.178 NA
HETATM    3  N   UNL     1      -0.543   5.744  17.659  0.00  0.00    -0.277 N 
HETATM    4  H   UNL     1      -1.358   6.243  17.319  0.00  0.00     0.189 HD
HETATM    5  C   UNL     1       1.460   5.174  18.342  0.00  0.00     0.020 A 
HETATM    6  C   UNL     1       0.683   6.265  17.974  0.00  0.00     0.065 A 
HETATM    7  C   UNL     1       2.816   5.376  18.668  0.00  0.00     0.035 C 
HETATM    8  C   UNL     1       3.330   6.684  18.663  0.00  0.00     0.066 C 
HETATM    9  C   UNL     1       2.468   7.767  18.428  0.00  0.00     0.083 C 
HETATM   10  C   UNL     1       1.147   7.581  18.011  0.00  0.00     0.069 C 
ENDROOT
BRANCH   8  11
HETATM   11  C   UNL     1       4.769   6.929  18.970  0.00  0.00     0.260 C 
HETATM   12  O   UNL     1       5.537   6.839  18.006  0.00  0.00    -0.267 OA
HETATM   13  N   UNL     1       5.184   7.310  20.265  0.00  0.00    -0.318 N 
HETATM   14  C   UNL     1       6.538   7.845  20.408  0.00  0.00     0.159 C 
BRANCH  13  15
HETATM   15  C   UNL     1       4.463   7.054  21.481  0.00  0.00     0.039 A 
HETATM   16  C   UNL     1       4.331   5.752  21.974  0.00  0.00     0.032 A 
HETATM   17  C   UNL     1       3.586   5.484  23.128  0.00  0.00     0.042 A 
HETATM   18  C   UNL     1       2.979   6.525  23.820  0.00  0.00     0.102 A 
HETATM   19  C   UNL     1       3.127   7.834  23.371  0.00  0.00     0.104 A 
HETATM   20  O   UNL     1       2.264   6.176  24.936  0.00  0.00    -0.346 OA
HETATM   21  C   UNL     1       3.888   8.103  22.224  0.00  0.00     0.069 A 
HETATM   22  O   UNL     1       2.553   8.910  24.005  0.00  0.00    -0.346 OA
HETATM   23  C   UNL     1       1.509   8.495  24.899  0.00  0.00     0.202 C 
HETATM   24  C   UNL     1       1.955   7.314  25.749  0.00  0.00     0.202 C 
ENDBRANCH  13  15
ENDBRANCH   8  11
BRANCH   9  25
HETATM   25  O   UNL     1       2.843   9.070  18.633  0.00  0.00    -0.360 OA
HETATM   26  H   UNL     1       3.216   9.394  17.783  0.00  0.00     0.217 HD
ENDBRANCH   9  25
BRANCH   1  27
HETATM   27  C   UNL     1       0.813   2.696  18.880  0.00  0.00     0.100 C 
BRANCH  27  28
HETATM   28  C   UNL     1       1.909   2.012  18.096  0.00  0.00    -0.052 A 
HETATM   29  C   UNL     1       3.176   1.718  18.620  0.00  0.00     0.014 A 
HETATM   30  C   UNL     1       4.186   1.189  17.806  0.00  0.00    -0.061 A 
HETATM   31  C   UNL     1       5.598   1.119  18.306  0.00  0.00     0.048 C 
HETATM   32  C   UNL     1       3.892   0.837  16.485  0.00  0.00     0.007 A 
HETATM   33  C   UNL     1       2.612   1.032  15.976  0.00  0.00     0.001 A 
HETATM   34  C   UNL     1       1.632   1.625  16.773  0.00  0.00     0.007 A 
ENDBRANCH  27  28
ENDBRANCH   1  27
TORSDOF 5
ENDMDL
