MODEL 1
REMARK VINA RESULT:    -8.397      0.000      0.000
REMARK INTER + INTRA:         -13.042
REMARK INTER:                 -11.013
REMARK INTRA:                  -2.029
REMARK UNBOUND:                -1.700
REMARK  7 active torsions:
REMARK  status: ('A' for Active; 'I' for Inactive)
REMARK    1  A    between atoms: C_7  and  N_8 
REMARK    2  A    between atoms: C_14  and  C_15 
REMARK    3  A    between atoms: C_16  and  O_17 
REMARK    4  A    between atoms: C_19  and  O_20 
REMARK    5  A    between atoms: C_22  and  C_23 
REMARK       I    between atoms: C_23  and  N_25 
REMARK    6  A    between atoms: N_25  and  C_27 
REMARK    7  A    between atoms: C_27  and  C_28 
ROOT
HETATM    1  C   UNL     1       3.804   7.152  18.180  0.00  0.00     0.046 A 
HETATM    2  C   UNL     1       2.835   8.172  18.289  0.00  0.00     0.082 A 
HETATM    3  C   UNL     1       1.588   8.052  17.690  0.00  0.00     0.075 A 
HETATM    4  C   UNL     1       1.271   6.898  16.977  0.00  0.00     0.084 A 
HETATM    5  C   UNL     1       3.498   6.030  17.380  0.00  0.00     0.038 A 
HETATM    6  C   UNL     1       2.211   5.856  16.817  0.00  0.00     0.066 A 
ENDROOT
BRANCH   1   7
HETATM    7  C   UNL     1       5.062   7.299  18.973  0.00  0.00     0.172 A 
HETATM    8  N   UNL     1       5.448   6.589  20.087  0.00  0.00    -0.244 N 
HETATM    9  C   UNL     1       6.689   7.107  20.433  0.00  0.00     0.349 A 
HETATM   10  O   UNL     1       7.404   6.865  21.393  0.00  0.00    -0.245 OA
HETATM   11  N   UNL     1       6.967   8.077  19.482  0.00  0.00    -0.226 N 
HETATM   12  H   UNL     1       7.752   8.714  19.520  0.00  0.00     0.194 HD
HETATM   13  N   UNL     1       5.948   8.192  18.600  0.00  0.00    -0.151 NA
BRANCH   8  14
HETATM   14  C   UNL     1       4.788   5.689  20.955  0.00  0.00     0.051 A 
HETATM   15  C   UNL     1       3.963   6.088  22.026  0.00  0.00    -0.035 A 
HETATM   16  C   UNL     1       3.804   7.516  22.465  0.00  0.00     0.050 C 
HETATM   17  C   UNL     1       3.377   5.096  22.839  0.00  0.00     0.009 A 
HETATM   18  C   UNL     1       3.657   3.743  22.650  0.00  0.00     0.001 A 
HETATM   19  C   UNL     1       4.527   3.352  21.643  0.00  0.00     0.002 A 
HETATM   20  C   UNL     1       5.083   4.316  20.800  0.00  0.00     0.031 A 
ENDBRANCH   8  14
ENDBRANCH   1   7
BRANCH   2  21
HETATM   21  O   UNL     1       3.012   9.330  19.004  0.00  0.00    -0.360 OA
HETATM   22  H   UNL     1       3.963   9.578  18.962  0.00  0.00     0.217 HD
ENDBRANCH   2  21
BRANCH   6  23
HETATM   23  C   UNL     1       1.720   4.502  16.352  0.00  0.00     0.256 C 
HETATM   24  O   UNL     1       1.239   4.449  15.217  0.00  0.00    -0.267 OA
HETATM   25  N   UNL     1       1.669   3.369  17.179  0.00  0.00    -0.347 N 
HETATM   26  C   UNL     1       2.243   3.245  18.507  0.00  0.00     0.153 C 
BRANCH  25  27
HETATM   27  C   UNL     1       0.777   2.277  16.760  0.00  0.00     0.171 C 
BRANCH  27  28
HETATM   28  C   UNL     1      -0.419   2.096  17.657  0.00  0.00     0.000 A 
HETATM   29  S   UNL     1      -0.641   0.612  18.500  0.00  0.00    -0.105 SA
HETATM   30  C   UNL     1      -1.984   1.218  19.365  0.00  0.00     0.050 A 
HETATM   31  C   UNL     1      -2.278   2.515  19.020  0.00  0.00     0.008 A 
HETATM   32  C   UNL     1      -1.375   3.023  18.035  0.00  0.00     0.017 A 
ENDBRANCH  27  28
ENDBRANCH  25  27
ENDBRANCH   6  23
BRANCH   4  33
HETATM   33  O   UNL     1       0.012   6.819  16.433  0.00  0.00    -0.360 OA
HETATM   34  H   UNL     1      -0.466   6.075  16.843  0.00  0.00     0.217 HD
ENDBRANCH   4  33
TORSDOF 7
ENDMDL
MODEL 2
REMARK VINA RESULT:    -7.913      4.521      7.631
REMARK INTER + INTRA:         -12.389
REMARK INTER:                 -10.444
REMARK INTRA:                  -1.945
REMARK UNBOUND:                -1.700
REMARK  7 active torsions:
REMARK  status: ('A' for Active; 'I' for Inactive)
REMARK    1  A    between atoms: C_7  and  N_8 
REMARK    2  A    between atoms: C_14  and  C_15 
REMARK    3  A    between atoms: C_16  and  O_17 
REMARK    4  A    between atoms: C_19  and  O_20 
REMARK    5  A    between atoms: C_22  and  C_23 
REMARK       I    between atoms: C_23  and  N_25 
REMARK    6  A    between atoms: N_25  and  C_27 
REMARK    7  A    between atoms: C_27  and  C_28 
ROOT
HETATM    1  C   UNL     1       4.777   7.122  22.339  0.00  0.00     0.046 A 
HETATM    2  C   UNL     1       5.596   6.370  23.208  0.00  0.00     0.082 A 
HETATM    3  C   UNL     1       5.286   6.232  24.555  0.00  0.00     0.075 A 
HETATM    4  C   UNL     1       4.137   6.832  25.066  0.00  0.00     0.084 A 
HETATM    5  C   UNL     1       3.666   7.794  22.892  0.00  0.00     0.038 A 
HETATM    6  C   UNL     1       3.294   7.613  24.246  0.00  0.00     0.066 A 
ENDROOT
BRANCH   1   7
HETATM    7  C   UNL     1       5.104   7.099  20.881  0.00  0.00     0.172 A 
HETATM    8  N   UNL     1       4.371   6.542  19.858  0.00  0.00    -0.244 N 
HETATM    9  C   UNL     1       5.106   6.796  18.707  0.00  0.00     0.349 A 
HETATM   10  O   UNL     1       4.917   6.436  17.556  0.00  0.00    -0.245 OA
HETATM   11  N   UNL     1       6.217   7.512  19.126  0.00  0.00    -0.226 N 
HETATM   12  H   UNL     1       7.003   7.753  18.535  0.00  0.00     0.194 HD
HETATM   13  N   UNL     1       6.208   7.675  20.468  0.00  0.00    -0.151 NA
BRANCH   8  14
HETATM   14  C   UNL     1       3.252   5.679  19.809  0.00  0.00     0.051 A 
HETATM   15  C   UNL     1       3.287   4.321  20.183  0.00  0.00    -0.035 A 
HETATM   16  C   UNL     1       4.550   3.590  20.541  0.00  0.00     0.050 C 
HETATM   17  C   UNL     1       2.110   3.552  20.067  0.00  0.00     0.009 A 
HETATM   18  C   UNL     1       0.943   4.090  19.522  0.00  0.00     0.001 A 
HETATM   19  C   UNL     1       0.928   5.405  19.084  0.00  0.00     0.002 A 
HETATM   20  C   UNL     1       2.070   6.194  19.231  0.00  0.00     0.031 A 
ENDBRANCH   8  14
ENDBRANCH   1   7
BRANCH   2  21
HETATM   21  O   UNL     1       6.724   5.695  22.813  0.00  0.00    -0.360 OA
HETATM   22  H   UNL     1       6.743   4.827  23.274  0.00  0.00     0.217 HD
ENDBRANCH   2  21
BRANCH   6  23
HETATM   23  C   UNL     1       1.902   7.943  24.741  0.00  0.00     0.256 C 
HETATM   24  O   UNL     1       1.129   6.992  24.889  0.00  0.00    -0.267 OA
HETATM   25  N   UNL     1       1.428   9.253  24.907  0.00  0.00    -0.347 N 
HETATM   26  C   UNL     1       2.215  10.470  24.836  0.00  0.00     0.153 C 
BRANCH  25  27
HETATM   27  C   UNL     1      -0.032   9.433  24.950  0.00  0.00     0.171 C 
BRANCH  27  28
HETATM   28  C   UNL     1      -0.554   9.810  26.311  0.00  0.00     0.000 A 
HETATM   29  S   UNL     1      -0.399   8.707  27.623  0.00  0.00    -0.105 SA
HETATM   30  C   UNL     1      -0.998   9.846  28.748  0.00  0.00     0.050 A 
HETATM   31  C   UNL     1      -1.327  11.038  28.150  0.00  0.00     0.008 A 
HETATM   32  C   UNL     1      -1.071  11.019  26.744  0.00  0.00     0.017 A 
ENDBRANCH  27  28
ENDBRANCH  25  27
ENDBRANCH   6  23
BRANCH   4  33
HETATM   33  O   UNL     1       3.862   6.635  26.397  0.00  0.00    -0.360 OA
HETATM   34  H   UNL     1       4.275   7.349  26.916  0.00  0.00     0.217 HD
ENDBRANCH   4  33
TORSDOF 7
ENDMDL
MODEL 3
REMARK VINA RESULT:    -7.897      1.649      2.699
REMARK INTER + INTRA:         -12.367
REMARK INTER:                 -10.104
REMARK INTRA:                  -2.263
REMARK UNBOUND:                -1.700
REMARK  7 active torsions:
REMARK  status: ('A' for Active; 'I' for Inactive)
REMARK    1  A    between atoms: C_7  and  N_8 
REMARK    2  A    between atoms: C_14  and  C_15 
REMARK    3  A    between atoms: C_16  and  O_17 
REMARK    4  A    between atoms: C_19  and  O_20 
REMARK    5  A    between atoms: C_22  and  C_23 
REMARK       I    between atoms: C_23  and  N_25 
REMARK    6  A    between atoms: N_25  and  C_27 
REMARK    7  A    between atoms: C_27  and  C_28 
ROOT
HETATM    1  C   UNL     1       3.507   6.980  18.447  0.00  0.00     0.046 A 
HETATM    2  C   UNL     1       2.672   8.115  18.364  0.00  0.00     0.082 A 
HETATM    3  C   UNL     1       1.371   8.022  17.887  0.00  0.00     0.075 A 
HETATM    4  C   UNL     1       0.864   6.785  17.496  0.00  0.00     0.084 A 
HETATM    5  C   UNL     1       3.007   5.753  17.964  0.00  0.00     0.038 A 
HETATM    6  C   UNL     1       1.663   5.621  17.538  0.00  0.00     0.066 A 
ENDROOT
BRANCH   1   7
HETATM    7  C   UNL     1       4.840   7.143  19.105  0.00  0.00     0.172 A 
HETATM    8  N   UNL     1       5.328   6.476  20.203  0.00  0.00    -0.244 N 
HETATM    9  C   UNL     1       6.603   6.991  20.402  0.00  0.00     0.349 A 
HETATM   10  O   UNL     1       7.408   6.780  21.296  0.00  0.00    -0.245 OA
HETATM   11  N   UNL     1       6.793   7.916  19.387  0.00  0.00    -0.226 N 
HETATM   12  H   UNL     1       7.584   8.544  19.319  0.00  0.00     0.194 HD
HETATM   13  N   UNL     1       5.692   8.008  18.607  0.00  0.00    -0.151 NA
BRANCH   8  14
HETATM   14  C   UNL     1       4.750   5.622  21.171  0.00  0.00     0.051 A 
HETATM   15  C   UNL     1       4.701   4.219  21.056  0.00  0.00    -0.035 A 
HETATM   16  C   UNL     1       5.125   3.470  19.825  0.00  0.00     0.050 C 
HETATM   17  C   UNL     1       4.075   3.474  22.078  0.00  0.00     0.009 A 
HETATM   18  C   UNL     1       3.443   4.102  23.151  0.00  0.00     0.001 A 
HETATM   19  C   UNL     1       3.425   5.487  23.228  0.00  0.00     0.002 A 
HETATM   20  C   UNL     1       4.077   6.239  22.250  0.00  0.00     0.031 A 
ENDBRANCH   8  14
ENDBRANCH   1   7
BRANCH   2  21
HETATM   21  O   UNL     1       3.042   9.375  18.764  0.00  0.00    -0.360 OA
HETATM   22  H   UNL     1       3.232   9.350  19.728  0.00  0.00     0.217 HD
ENDBRANCH   2  21
BRANCH   6  23
HETATM   23  C   UNL     1       0.985   4.272  17.446  0.00  0.00     0.256 C 
HETATM   24  O   UNL     1       0.609   3.768  18.509  0.00  0.00    -0.267 OA
HETATM   25  N   UNL     1       0.886   3.531  16.258  0.00  0.00    -0.347 N 
HETATM   26  C   UNL     1       1.219   3.996  14.923  0.00  0.00     0.153 C 
BRANCH  25  27
HETATM   27  C   UNL     1       0.624   2.090  16.389  0.00  0.00     0.171 C 
BRANCH  27  28
HETATM   28  C   UNL     1       1.873   1.249  16.416  0.00  0.00     0.000 A 
HETATM   29  S   UNL     1       1.983  -0.153  15.425  0.00  0.00    -0.105 SA
HETATM   30  C   UNL     1       3.619  -0.413  15.846  0.00  0.00     0.050 A 
HETATM   31  C   UNL     1       4.080   0.531  16.731  0.00  0.00     0.008 A 
HETATM   32  C   UNL     1       3.073   1.490  17.061  0.00  0.00     0.017 A 
ENDBRANCH  27  28
ENDBRANCH  25  27
ENDBRANCH   6  23
BRANCH   4  33
HETATM   33  O   UNL     1      -0.439   6.745  17.064  0.00  0.00    -0.360 OA
HETATM   34  H   UNL     1      -1.032   6.832  17.833  0.00  0.00     0.217 HD
ENDBRANCH   4  33
TORSDOF 7
ENDMDL
MODEL 4
REMARK VINA RESULT:    -7.686      4.734      7.439
REMARK INTER + INTRA:         -12.082
REMARK INTER:                 -10.676
REMARK INTRA:                  -1.406
REMARK UNBOUND:                -1.700
REMARK  7 active torsions:
REMARK  status: ('A' for Active; 'I' for Inactive)
REMARK    1  A    between atoms: C_7  and  N_8 
REMARK    2  A    between atoms: C_14  and  C_15 
REMARK    3  A    between atoms: C_16  and  O_17 
REMARK    4  A    between atoms: C_19  and  O_20 
REMARK    5  A    between atoms: C_22  and  C_23 
REMARK       I    between atoms: C_23  and  N_25 
REMARK    6  A    between atoms: N_25  and  C_27 
REMARK    7  A    between atoms: C_27  and  C_28 
ROOT
HETATM    1  C   UNL     1       2.924   8.114  24.575  0.00  0.00     0.046 A 
HETATM    2  C   UNL     1       3.732   7.628  25.625  0.00  0.00     0.082 A 
HETATM    3  C   UNL     1       4.811   6.789  25.379  0.00  0.00     0.075 A 
HETATM    4  C   UNL     1       5.120   6.425  24.070  0.00  0.00     0.084 A 
HETATM    5  C   UNL     1       3.198   7.664  23.266  0.00  0.00     0.038 A 
HETATM    6  C   UNL     1       4.331   6.865  22.983  0.00  0.00     0.066 A 
ENDROOT
BRANCH   1   7
HETATM    7  C   UNL     1       1.875   9.124  24.914  0.00  0.00     0.172 A 
HETATM    8  N   UNL     1       0.834   8.997  25.804  0.00  0.00    -0.244 N 
HETATM    9  C   UNL     1       0.162  10.211  25.748  0.00  0.00     0.349 A 
HETATM   10  O   UNL     1      -0.874  10.564  26.291  0.00  0.00    -0.245 OA
HETATM   11  N   UNL     1       0.869  10.987  24.843  0.00  0.00    -0.226 N 
HETATM   12  H   UNL     1       0.569  11.891  24.500  0.00  0.00     0.194 HD
HETATM   13  N   UNL     1       1.911  10.297  24.327  0.00  0.00    -0.151 NA
BRANCH   8  14
HETATM   14  C   UNL     1       0.275   7.909  26.512  0.00  0.00     0.051 A 
HETATM   15  C   UNL     1       0.263   7.805  27.917  0.00  0.00    -0.035 A 
HETATM   16  C   UNL     1       0.972   8.767  28.828  0.00  0.00     0.050 C 
HETATM   17  C   UNL     1      -0.304   6.657  28.510  0.00  0.00     0.009 A 
HETATM   18  C   UNL     1      -0.779   5.599  27.735  0.00  0.00     0.001 A 
HETATM   19  C   UNL     1      -0.700   5.667  26.352  0.00  0.00     0.002 A 
HETATM   20  C   UNL     1      -0.183   6.813  25.747  0.00  0.00     0.031 A 
ENDBRANCH   8  14
ENDBRANCH   1   7
BRANCH   2  21
HETATM   21  O   UNL     1       3.557   7.954  26.947  0.00  0.00    -0.360 OA
HETATM   22  H   UNL     1       3.761   8.909  27.060  0.00  0.00     0.217 HD
ENDBRANCH   2  21
BRANCH   6  23
HETATM   23  C   UNL     1       4.894   6.745  21.584  0.00  0.00     0.256 C 
HETATM   24  O   UNL     1       5.865   7.458  21.316  0.00  0.00    -0.267 OA
HETATM   25  N   UNL     1       4.296   5.980  20.570  0.00  0.00    -0.347 N 
HETATM   26  C   UNL     1       3.197   5.045  20.730  0.00  0.00     0.153 C 
BRANCH  25  27
HETATM   27  C   UNL     1       4.669   6.302  19.184  0.00  0.00     0.171 C 
BRANCH  27  28
HETATM   28  C   UNL     1       3.656   7.158  18.470  0.00  0.00     0.000 A 
HETATM   29  S   UNL     1       2.788   6.520  17.129  0.00  0.00    -0.105 SA
HETATM   30  C   UNL     1       1.797   7.908  17.015  0.00  0.00     0.050 A 
HETATM   31  C   UNL     1       2.119   8.850  17.961  0.00  0.00     0.008 A 
HETATM   32  C   UNL     1       3.191   8.419  18.801  0.00  0.00     0.017 A 
ENDBRANCH  27  28
ENDBRANCH  25  27
ENDBRANCH   6  23
BRANCH   4  33
HETATM   33  O   UNL     1       6.217   5.620  23.881  0.00  0.00    -0.360 OA
HETATM   34  H   UNL     1       6.083   4.783  24.362  0.00  0.00     0.217 HD
ENDBRANCH   4  33
TORSDOF 7
ENDMDL
MODEL 5
REMARK VINA RESULT:    -7.641      4.795      8.066
REMARK INTER + INTRA:         -12.022
REMARK INTER:                 -10.181
REMARK INTRA:                  -1.841
REMARK UNBOUND:                -1.700
REMARK  7 active torsions:
REMARK  status: ('A' for Active; 'I' for Inactive)
REMARK    1  A    between atoms: C_7  and  N_8 
REMARK    2  A    between atoms: C_14  and  C_15 
REMARK    3  A    between atoms: C_16  and  O_17 
REMARK    4  A    between atoms: C_19  and  O_20 
REMARK    5  A    between atoms: C_22  and  C_23 
REMARK       I    between atoms: C_23  and  N_25 
REMARK    6  A    between atoms: N_25  and  C_27 
REMARK    7  A    between atoms: C_27  and  C_28 
ROOT
HETATM    1  C   UNL     1       3.544   6.090  23.768  0.00  0.00     0.046 A 
HETATM    2  C   UNL     1       3.945   5.569  25.017  0.00  0.00     0.082 A 
HETATM    3  C   UNL     1       3.810   6.308  26.185  0.00  0.00     0.075 A 
HETATM    4  C   UNL     1       3.254   7.584  26.137  0.00  0.00     0.084 A 
HETATM    5  C   UNL     1       3.065   7.417  23.726  0.00  0.00     0.038 A 
HETATM    6  C   UNL     1       2.855   8.162  24.912  0.00  0.00     0.066 A 
ENDROOT
BRANCH   1   7
HETATM    7  C   UNL     1       3.590   5.177  22.585  0.00  0.00     0.172 A 
HETATM    8  N   UNL     1       4.317   5.328  21.428  0.00  0.00    -0.244 N 
HETATM    9  C   UNL     1       4.010   4.212  20.660  0.00  0.00     0.349 A 
HETATM   10  O   UNL     1       4.339   3.925  19.520  0.00  0.00    -0.245 OA
HETATM   11  N   UNL     1       3.138   3.459  21.430  0.00  0.00    -0.226 N 
HETATM   12  H   UNL     1       2.645   2.636  21.106  0.00  0.00     0.194 HD
HETATM   13  N   UNL     1       2.878   4.075  22.605  0.00  0.00    -0.151 NA
BRANCH   8  14
HETATM   14  C   UNL     1       5.058   6.394  20.865  0.00  0.00     0.051 A 
HETATM   15  C   UNL     1       4.511   7.366  20.005  0.00  0.00    -0.035 A 
HETATM   16  C   UNL     1       3.110   7.305  19.465  0.00  0.00     0.050 C 
HETATM   17  C   UNL     1       5.357   8.369  19.487  0.00  0.00     0.009 A 
HETATM   18  C   UNL     1       6.728   8.369  19.748  0.00  0.00     0.001 A 
HETATM   19  C   UNL     1       7.280   7.369  20.534  0.00  0.00     0.002 A 
HETATM   20  C   UNL     1       6.452   6.394  21.092  0.00  0.00     0.031 A 
ENDBRANCH   8  14
ENDBRANCH   1   7
BRANCH   2  21
HETATM   21  O   UNL     1       4.460   4.310  25.197  0.00  0.00    -0.360 OA
HETATM   22  H   UNL     1       4.057   3.923  26.006  0.00  0.00     0.217 HD
ENDBRANCH   2  21
BRANCH   6  23
HETATM   23  C   UNL     1       1.950   9.374  24.942  0.00  0.00     0.256 C 
HETATM   24  O   UNL     1       2.504  10.478  24.928  0.00  0.00    -0.267 OA
HETATM   25  N   UNL     1       0.559   9.300  25.113  0.00  0.00    -0.347 N 
HETATM   26  C   UNL     1      -0.250   8.095  25.086  0.00  0.00     0.153 C 
BRANCH  25  27
HETATM   27  C   UNL     1      -0.123  10.521  25.570  0.00  0.00     0.171 C 
BRANCH  27  28
HETATM   28  C   UNL     1      -0.869  11.241  24.477  0.00  0.00     0.000 A 
HETATM   29  S   UNL     1      -2.578  11.078  24.358  0.00  0.00    -0.105 SA
HETATM   30  C   UNL     1      -2.676  12.241  23.109  0.00  0.00     0.050 A 
HETATM   31  C   UNL     1      -1.441  12.739  22.771  0.00  0.00     0.008 A 
HETATM   32  C   UNL     1      -0.398  12.163  23.560  0.00  0.00     0.017 A 
ENDBRANCH  27  28
ENDBRANCH  25  27
ENDBRANCH   6  23
BRANCH   4  33
HETATM   33  O   UNL     1       3.113   8.256  27.327  0.00  0.00    -0.360 OA
HETATM   34  H   UNL     1       3.875   8.051  27.900  0.00  0.00     0.217 HD
ENDBRANCH   4  33
TORSDOF 7
ENDMDL
MODEL 6
REMARK VINA RESULT:    -7.629      8.063     10.193
REMARK INTER + INTRA:         -12.005
REMARK INTER:                 -10.133
REMARK INTRA:                  -1.872
REMARK UNBOUND:                -1.700
REMARK  7 active torsions:
REMARK  status: ('A' for Active; 'I' for Inactive)
REMARK    1  A    between atoms: C_7  and  N_8 
REMARK    2  A    between atoms: C_14  and  C_15 
REMARK    3  A    between atoms: C_16  and  O_17 
REMARK    4  A    between atoms: C_19  and  O_20 
REMARK    5  A    between atoms: C_22  and  C_23 
REMARK       I    between atoms: C_23  and  N_25 
REMARK    6  A    between atoms: N_25  and  C_27 
REMARK    7  A    between atoms: C_27  and  C_28 
ROOT
HETATM    1  C   UNL     1       1.520   7.743  26.820  0.00  0.00     0.046 A 
HETATM    2  C   UNL     1       0.853   6.853  25.951  0.00  0.00     0.082 A 
HETATM    3  C   UNL     1      -0.215   7.272  25.167  0.00  0.00     0.075 A 
HETATM    4  C   UNL     1      -0.632   8.600  25.220  0.00  0.00     0.084 A 
HETATM    5  C   UNL     1       1.028   9.061  26.925  0.00  0.00     0.038 A 
HETATM    6  C   UNL     1      -0.013   9.528  26.087  0.00  0.00     0.066 A 
ENDROOT
BRANCH   1   7
HETATM    7  C   UNL     1       2.746   7.246  27.517  0.00  0.00     0.172 A 
HETATM    8  N   UNL     1       2.912   6.992  28.858  0.00  0.00    -0.244 N 
HETATM    9  C   UNL     1       4.223   6.551  28.983  0.00  0.00     0.349 A 
HETATM   10  O   UNL     1       4.871   6.278  29.981  0.00  0.00    -0.245 OA
HETATM   11  N   UNL     1       4.739   6.550  27.697  0.00  0.00    -0.226 N 
HETATM   12  H   UNL     1       5.710   6.381  27.465  0.00  0.00     0.194 HD
HETATM   13  N   UNL     1       3.822   6.996  26.809  0.00  0.00    -0.151 NA
BRANCH   8  14
HETATM   14  C   UNL     1       2.145   7.273  30.013  0.00  0.00     0.051 A 
HETATM   15  C   UNL     1       0.966   6.585  30.364  0.00  0.00    -0.035 A 
HETATM   16  C   UNL     1       0.302   5.570  29.478  0.00  0.00     0.050 C 
HETATM   17  C   UNL     1       0.274   6.973  31.530  0.00  0.00     0.009 A 
HETATM   18  C   UNL     1       0.691   8.064  32.293  0.00  0.00     0.001 A 
HETATM   19  C   UNL     1       1.809   8.788  31.908  0.00  0.00     0.002 A 
HETATM   20  C   UNL     1       2.532   8.393  30.782  0.00  0.00     0.031 A 
ENDBRANCH   8  14
ENDBRANCH   1   7
BRANCH   2  21
HETATM   21  O   UNL     1       1.202   5.537  25.778  0.00  0.00    -0.360 OA
HETATM   22  H   UNL     1       0.423   4.979  25.993  0.00  0.00     0.217 HD
ENDBRANCH   2  21
BRANCH   6  23
HETATM   23  C   UNL     1      -0.253  11.004  25.860  0.00  0.00     0.256 C 
HETATM   24  O   UNL     1      -1.247  11.493  26.404  0.00  0.00    -0.267 OA
HETATM   25  N   UNL     1       0.508  11.788  24.978  0.00  0.00    -0.347 N 
HETATM   26  C   UNL     1       1.735  11.390  24.311  0.00  0.00     0.153 C 
BRANCH  25  27
HETATM   27  C   UNL     1      -0.094  13.049  24.517  0.00  0.00     0.171 C 
BRANCH  27  28
HETATM   28  C   UNL     1      -0.830  12.925  23.210  0.00  0.00     0.000 A 
HETATM   29  S   UNL     1      -2.481  12.441  23.199  0.00  0.00    -0.105 SA
HETATM   30  C   UNL     1      -2.625  12.706  21.517  0.00  0.00     0.050 A 
HETATM   31  C   UNL     1      -1.446  13.139  20.960  0.00  0.00     0.008 A 
HETATM   32  C   UNL     1      -0.410  13.266  21.936  0.00  0.00     0.017 A 
ENDBRANCH  27  28
ENDBRANCH  25  27
ENDBRANCH   6  23
BRANCH   4  33
HETATM   33  O   UNL     1      -1.670   8.968  24.399  0.00  0.00    -0.360 OA
HETATM   34  H   UNL     1      -2.377   9.368  24.938  0.00  0.00     0.217 HD
ENDBRANCH   4  33
TORSDOF 7
ENDMDL
MODEL 7
REMARK VINA RESULT:    -7.621      1.517      2.119
REMARK INTER + INTRA:         -11.995
REMARK INTER:                 -10.010
REMARK INTRA:                  -1.985
REMARK UNBOUND:                -1.700
REMARK  7 active torsions:
REMARK  status: ('A' for Active; 'I' for Inactive)
REMARK    1  A    between atoms: C_7  and  N_8 
REMARK    2  A    between atoms: C_14  and  C_15 
REMARK    3  A    between atoms: C_16  and  O_17 
REMARK    4  A    between atoms: C_19  and  O_20 
REMARK    5  A    between atoms: C_22  and  C_23 
REMARK       I    between atoms: C_23  and  N_25 
REMARK    6  A    between atoms: N_25  and  C_27 
REMARK    7  A    between atoms: C_27  and  C_28 
ROOT
HETATM    1  C   UNL     1       3.537   6.948  18.382  0.00  0.00     0.046 A 
HETATM    2  C   UNL     1       2.656   8.049  18.341  0.00  0.00     0.082 A 
HETATM    3  C   UNL     1       1.362   7.922  17.851  0.00  0.00     0.075 A 
HETATM    4  C   UNL     1       0.910   6.683  17.403  0.00  0.00     0.084 A 
HETATM    5  C   UNL     1       3.092   5.722  17.842  0.00  0.00     0.038 A 
HETATM    6  C   UNL     1       1.758   5.553  17.401  0.00  0.00     0.066 A 
ENDROOT
BRANCH   1   7
HETATM    7  C   UNL     1       4.858   7.138  19.056  0.00  0.00     0.172 A 
HETATM    8  N   UNL     1       5.337   6.497  20.175  0.00  0.00    -0.244 N 
HETATM    9  C   UNL     1       6.602   7.030  20.382  0.00  0.00     0.349 A 
HETATM   10  O   UNL     1       7.396   6.845  21.292  0.00  0.00    -0.245 OA
HETATM   11  N   UNL     1       6.798   7.936  19.352  0.00  0.00    -0.226 N 
HETATM   12  H   UNL     1       7.584   8.571  19.283  0.00  0.00     0.194 HD
HETATM   13  N   UNL     1       5.709   8.002  18.554  0.00  0.00    -0.151 NA
BRANCH   8  14
HETATM   14  C   UNL     1       4.752   5.657  21.150  0.00  0.00     0.051 A 
HETATM   15  C   UNL     1       4.694   4.253  21.049  0.00  0.00    -0.035 A 
HETATM   16  C   UNL     1       5.115   3.490  19.825  0.00  0.00     0.050 C 
HETATM   17  C   UNL     1       4.063   3.522  22.077  0.00  0.00     0.009 A 
HETATM   18  C   UNL     1       3.435   4.165  23.145  0.00  0.00     0.001 A 
HETATM   19  C   UNL     1       3.427   5.550  23.208  0.00  0.00     0.002 A 
HETATM   20  C   UNL     1       4.084   6.289  22.223  0.00  0.00     0.031 A 
ENDBRANCH   8  14
ENDBRANCH   1   7
BRANCH   2  21
HETATM   21  O   UNL     1       2.969   9.304  18.798  0.00  0.00    -0.360 OA
HETATM   22  H   UNL     1       2.728   9.357  19.750  0.00  0.00     0.217 HD
ENDBRANCH   2  21
BRANCH   6  23
HETATM   23  C   UNL     1       1.137   4.181  17.245  0.00  0.00     0.256 C 
HETATM   24  O   UNL     1       0.889   3.566  18.286  0.00  0.00    -0.267 OA
HETATM   25  N   UNL     1       0.960   3.545  16.007  0.00  0.00    -0.347 N 
HETATM   26  C   UNL     1       1.141   4.145  14.697  0.00  0.00     0.153 C 
BRANCH  25  27
HETATM   27  C   UNL     1       0.779   2.085  16.026  0.00  0.00     0.171 C 
BRANCH  27  28
HETATM   28  C   UNL     1      -0.624   1.646  15.703  0.00  0.00     0.000 A 
HETATM   29  S   UNL     1      -0.882   0.331  14.624  0.00  0.00    -0.105 SA
HETATM   30  C   UNL     1      -2.568   0.333  14.907  0.00  0.00     0.050 A 
HETATM   31  C   UNL     1      -2.941   1.317  15.790  0.00  0.00     0.008 A 
HETATM   32  C   UNL     1      -1.821   2.075  16.250  0.00  0.00     0.017 A 
ENDBRANCH  27  28
ENDBRANCH  25  27
ENDBRANCH   6  23
BRANCH   4  33
HETATM   33  O   UNL     1      -0.387   6.607  16.960  0.00  0.00    -0.360 OA
HETATM   34  H   UNL     1      -0.458   7.065  16.102  0.00  0.00     0.217 HD
ENDBRANCH   4  33
TORSDOF 7
ENDMDL
MODEL 8
REMARK VINA RESULT:    -7.595      4.459      7.476
REMARK INTER + INTRA:         -11.959
REMARK INTER:                 -10.877
REMARK INTRA:                  -1.083
REMARK UNBOUND:                -1.700
REMARK  7 active torsions:
REMARK  status: ('A' for Active; 'I' for Inactive)
REMARK    1  A    between atoms: C_7  and  N_8 
REMARK    2  A    between atoms: C_14  and  C_15 
REMARK    3  A    between atoms: C_16  and  O_17 
REMARK    4  A    between atoms: C_19  and  O_20 
REMARK    5  A    between atoms: C_22  and  C_23 
REMARK       I    between atoms: C_23  and  N_25 
REMARK    6  A    between atoms: N_25  and  C_27 
REMARK    7  A    between atoms: C_27  and  C_28 
ROOT
HETATM    1  C   UNL     1       4.954   7.546  22.346  0.00  0.00     0.046 A 
HETATM    2  C   UNL     1       5.351   6.534  23.247  0.00  0.00     0.082 A 
HETATM    3  C   UNL     1       4.967   6.563  24.582  0.00  0.00     0.075 A 
HETATM    4  C   UNL     1       4.160   7.598  25.048  0.00  0.00     0.084 A 
HETATM    5  C   UNL     1       4.211   8.632  22.855  0.00  0.00     0.038 A 
HETATM    6  C   UNL     1       3.752   8.647  24.195  0.00  0.00     0.066 A 
ENDROOT
BRANCH   1   7
HETATM    7  C   UNL     1       5.289   7.362  20.901  0.00  0.00     0.172 A 
HETATM    8  N   UNL     1       4.499   6.827  19.911  0.00  0.00    -0.244 N 
HETATM    9  C   UNL     1       5.273   6.888  18.759  0.00  0.00     0.349 A 
HETATM   10  O   UNL     1       5.049   6.465  17.636  0.00  0.00    -0.245 OA
HETATM   11  N   UNL     1       6.466   7.481  19.143  0.00  0.00    -0.226 N 
HETATM   12  H   UNL     1       7.283   7.568  18.552  0.00  0.00     0.194 HD
HETATM   13  N   UNL     1       6.465   7.752  20.467  0.00  0.00    -0.151 NA
BRANCH   8  14
HETATM   14  C   UNL     1       3.275   6.118  19.906  0.00  0.00     0.051 A 
HETATM   15  C   UNL     1       2.149   6.494  19.148  0.00  0.00    -0.035 A 
HETATM   16  C   UNL     1       2.063   7.775  18.366  0.00  0.00     0.050 C 
HETATM   17  C   UNL     1       0.974   5.720  19.244  0.00  0.00     0.009 A 
HETATM   18  C   UNL     1       0.885   4.643  20.127  0.00  0.00     0.001 A 
HETATM   19  C   UNL     1       1.968   4.316  20.929  0.00  0.00     0.002 A 
HETATM   20  C   UNL     1       3.154   5.044  20.816  0.00  0.00     0.031 A 
ENDBRANCH   8  14
ENDBRANCH   1   7
BRANCH   2  21
HETATM   21  O   UNL     1       6.103   5.442  22.896  0.00  0.00    -0.360 OA
HETATM   22  H   UNL     1       7.053   5.691  22.944  0.00  0.00     0.217 HD
ENDBRANCH   2  21
BRANCH   6  23
HETATM   23  C   UNL     1       2.612   9.539  24.637  0.00  0.00     0.256 C 
HETATM   24  O   UNL     1       2.888  10.723  24.851  0.00  0.00    -0.267 OA
HETATM   25  N   UNL     1       1.325   9.065  24.932  0.00  0.00    -0.347 N 
HETATM   26  C   UNL     1       0.820   7.727  24.680  0.00  0.00     0.153 C 
BRANCH  25  27
HETATM   27  C   UNL     1       0.469   9.927  25.761  0.00  0.00     0.171 C 
BRANCH  27  28
HETATM   28  C   UNL     1      -0.471  10.792  24.964  0.00  0.00     0.000 A 
HETATM   29  S   UNL     1      -0.086  12.447  24.689  0.00  0.00    -0.105 SA
HETATM   30  C   UNL     1      -1.422  12.660  23.643  0.00  0.00     0.050 A 
HETATM   31  C   UNL     1      -2.160  11.510  23.509  0.00  0.00     0.008 A 
HETATM   32  C   UNL     1      -1.612  10.431  24.270  0.00  0.00     0.017 A 
ENDBRANCH  27  28
ENDBRANCH  25  27
ENDBRANCH   6  23
BRANCH   4  33
HETATM   33  O   UNL     1       3.784   7.559  26.368  0.00  0.00    -0.360 OA
HETATM   34  H   UNL     1       3.062   8.198  26.512  0.00  0.00     0.217 HD
ENDBRANCH   4  33
TORSDOF 7
ENDMDL
MODEL 9
REMARK VINA RESULT:    -7.550      6.832      9.465
REMARK INTER + INTRA:         -11.898
REMARK INTER:                 -10.198
REMARK INTRA:                  -1.700
REMARK UNBOUND:                -1.700
REMARK  7 active torsions:
REMARK  status: ('A' for Active; 'I' for Inactive)
REMARK    1  A    between atoms: C_7  and  N_8 
REMARK    2  A    between atoms: C_14  and  C_15 
REMARK    3  A    between atoms: C_16  and  O_17 
REMARK    4  A    between atoms: C_19  and  O_20 
REMARK    5  A    between atoms: C_22  and  C_23 
REMARK       I    between atoms: C_23  and  N_25 
REMARK    6  A    between atoms: N_25  and  C_27 
REMARK    7  A    between atoms: C_27  and  C_28 
ROOT
HETATM    1  C   UNL     1       0.600   8.767  27.899  0.00  0.00     0.046 A 
HETATM    2  C   UNL     1      -0.364   9.731  27.536  0.00  0.00     0.082 A 
HETATM    3  C   UNL     1      -0.390  10.284  26.262  0.00  0.00     0.075 A 
HETATM    4  C   UNL     1       0.541   9.873  25.311  0.00  0.00     0.084 A 
HETATM    5  C   UNL     1       1.589   8.429  26.951  0.00  0.00     0.038 A 
HETATM    6  C   UNL     1       1.541   8.928  25.627  0.00  0.00     0.066 A 
ENDROOT
BRANCH   1   7
HETATM    7  C   UNL     1       0.467   8.120  29.241  0.00  0.00     0.172 A 
HETATM    8  N   UNL     1       0.417   6.777  29.530  0.00  0.00    -0.244 N 
HETATM    9  C   UNL     1       0.294   6.710  30.912  0.00  0.00     0.349 A 
HETATM   10  O   UNL     1       0.132   5.745  31.643  0.00  0.00    -0.245 OA
HETATM   11  N   UNL     1       0.305   8.025  31.351  0.00  0.00    -0.226 N 
HETATM   12  H   UNL     1       0.123   8.317  32.303  0.00  0.00     0.194 HD
HETATM   13  N   UNL     1       0.396   8.880  30.308  0.00  0.00    -0.151 NA
BRANCH   8  14
HETATM   14  C   UNL     1       0.269   5.608  28.748  0.00  0.00     0.051 A 
HETATM   15  C   UNL     1       1.288   4.654  28.555  0.00  0.00    -0.035 A 
HETATM   16  C   UNL     1       2.699   4.836  29.037  0.00  0.00     0.050 C 
HETATM   17  C   UNL     1       1.028   3.538  27.731  0.00  0.00     0.009 A 
HETATM   18  C   UNL     1      -0.183   3.405  27.051  0.00  0.00     0.001 A 
HETATM   19  C   UNL     1      -1.159   4.381  27.180  0.00  0.00     0.002 A 
HETATM   20  C   UNL     1      -0.937   5.469  28.025  0.00  0.00     0.031 A 
ENDBRANCH   8  14
ENDBRANCH   1   7
BRANCH   2  21
HETATM   21  O   UNL     1      -1.360  10.178  28.369  0.00  0.00    -0.360 OA
HETATM   22  H   UNL     1      -2.226   9.990  27.945  0.00  0.00     0.217 HD
ENDBRANCH   2  21
BRANCH   6  23
HETATM   23  C   UNL     1       2.291   8.259  24.496  0.00  0.00     0.256 C 
HETATM   24  O   UNL     1       1.957   7.104  24.217  0.00  0.00    -0.267 OA
HETATM   25  N   UNL     1       3.404   8.830  23.858  0.00  0.00    -0.347 N 
HETATM   26  C   UNL     1       3.887  10.189  24.020  0.00  0.00     0.153 C 
BRANCH  25  27
HETATM   27  C   UNL     1       4.289   7.917  23.118  0.00  0.00     0.171 C 
BRANCH  27  28
HETATM   28  C   UNL     1       3.973   7.827  21.649  0.00  0.00     0.000 A 
HETATM   29  S   UNL     1       3.383   6.352  20.989  0.00  0.00    -0.105 SA
HETATM   30  C   UNL     1       3.111   7.060  19.457  0.00  0.00     0.050 A 
HETATM   31  C   UNL     1       3.470   8.386  19.430  0.00  0.00     0.008 A 
HETATM   32  C   UNL     1       3.968   8.829  20.695  0.00  0.00     0.017 A 
ENDBRANCH  27  28
ENDBRANCH  25  27
ENDBRANCH   6  23
BRANCH   4  33
HETATM   33  O   UNL     1       0.448  10.428  24.058  0.00  0.00    -0.360 OA
HETATM   34  H   UNL     1       0.481  11.400  24.136  0.00  0.00     0.217 HD
ENDBRANCH   4  33
TORSDOF 7
ENDMDL
