MODEL 1
REMARK VINA RESULT:   -10.567      0.000      0.000
REMARK INTER + INTRA:         -13.099
REMARK INTER:                 -12.081
REMARK INTRA:                  -1.018
REMARK UNBOUND:                -0.679
REMARK  3 active torsions:
REMARK  status: ('A' for Active; 'I' for Inactive)
REMARK       I    between atoms: C_2  and  N_3 
REMARK    1  A    between atoms: C_2  and  C_27 
REMARK    2  A    between atoms: N_3  and  C_4 
REMARK    3  A    between atoms: C_16  and  C_17 
ROOT
HETATM    1  C   UNL     1       3.659  12.666  24.557  0.00  0.00     0.153 A 
HETATM    2  C   UNL     1       4.439  13.827  23.982  0.00  0.00    -0.020 A 
HETATM    3  C   UNL     1       4.025  15.154  23.917  0.00  0.00     0.010 A 
HETATM    4  C   UNL     1       4.896  16.093  23.371  0.00  0.00     0.001 A 
HETATM    5  C   UNL     1       6.163  15.697  22.931  0.00  0.00     0.001 A 
HETATM    6  C   UNL     1       6.572  14.358  23.023  0.00  0.00     0.013 A 
HETATM    7  C   UNL     1       5.702  13.397  23.518  0.00  0.00    -0.016 A 
HETATM    8  C   UNL     1       5.818  11.943  23.705  0.00  0.00    -0.003 A 
HETATM    9  C   UNL     1       4.624  11.513  24.353  0.00  0.00    -0.019 A 
HETATM   10  C   UNL     1       4.403  10.195  24.733  0.00  0.00     0.010 A 
HETATM   11  C   UNL     1       5.381   9.259  24.438  0.00  0.00     0.002 A 
HETATM   12  C   UNL     1       6.551   9.647  23.764  0.00  0.00     0.016 A 
HETATM   13  C   UNL     1       6.796  10.989  23.379  0.00  0.00     0.022 A 
ENDROOT
BRANCH   1  14
HETATM   14  N   UNL     1       2.431  12.474  23.820  0.00  0.00    -0.344 N 
HETATM   15  C   UNL     1       1.256  13.069  24.216  0.00  0.00     0.253 C 
HETATM   16  O   UNL     1       1.172  13.780  25.209  0.00  0.00    -0.268 OA
HETATM   17  H   UNL     1       2.419  11.706  23.165  0.00  0.00     0.163 HD
BRANCH  15  18
HETATM   18  C   UNL     1       0.072  12.812  23.360  0.00  0.00     0.047 A 
HETATM   19  C   UNL     1       0.022  13.245  22.027  0.00  0.00     0.037 A 
HETATM   20  C   UNL     1      -1.140  13.037  21.299  0.00  0.00     0.120 A 
HETATM   21  N   UNL     1      -2.263  12.449  21.761  0.00  0.00    -0.242 NA
HETATM   22  C   UNL     1      -2.167  12.058  23.044  0.00  0.00     0.138 A 
HETATM   23  N   UNL     1      -3.180  11.455  23.738  0.00  0.00    -0.350 N 
HETATM   24  C   UNL     1      -1.075  12.190  23.895  0.00  0.00     0.027 A 
HETATM   25  H   UNL     1      -4.091  11.266  23.345  0.00  0.00     0.166 HD
HETATM   26  C   UNL     1      -2.763  11.165  25.011  0.00  0.00     0.090 A 
HETATM   27  C   UNL     1      -1.466  11.615  25.140  0.00  0.00     0.033 A 
ENDBRANCH  15  18
ENDBRANCH   1  14
BRANCH  13  28
HETATM   28  C   UNL     1       8.016  11.294  22.617  0.00  0.00     0.140 A 
HETATM   29  N   UNL     1       8.140  11.283  21.305  0.00  0.00    -0.227 NA
HETATM   30  C   UNL     1       9.404  11.726  21.021  0.00  0.00     0.103 A 
HETATM   31  C   UNL     1      10.009  12.013  19.795  0.00  0.00     0.150 A 
HETATM   32  C   UNL     1      10.132  11.899  22.190  0.00  0.00     0.065 A 
HETATM   33  N   UNL     1      11.302  12.430  19.754  0.00  0.00    -0.271 NA
HETATM   34  C   UNL     1      11.983  12.549  20.918  0.00  0.00     0.118 A 
HETATM   35  C   UNL     1      11.464  12.302  22.185  0.00  0.00     0.051 A 
HETATM   36  N   UNL     1       9.236  11.609  23.188  0.00  0.00    -0.338 N 
HETATM   37  H   UNL     1       9.420  11.666  24.179  0.00  0.00     0.167 HD
ENDBRANCH  13  28
TORSDOF 3
ENDMDL
MODEL 2
REMARK VINA RESULT:   -10.486      0.863      2.042
REMARK INTER + INTRA:         -13.004
REMARK INTER:                 -11.937
REMARK INTRA:                  -1.067
REMARK UNBOUND:                -0.679
REMARK  3 active torsions:
REMARK  status: ('A' for Active; 'I' for Inactive)
REMARK       I    between atoms: C_2  and  N_3 
REMARK    1  A    between atoms: C_2  and  C_27 
REMARK    2  A    between atoms: N_3  and  C_4 
REMARK    3  A    between atoms: C_16  and  C_17 
ROOT
HETATM    1  C   UNL     1       3.018  12.575  25.166  0.00  0.00     0.153 A 
HETATM    2  C   UNL     1       3.654  13.778  24.507  0.00  0.00    -0.020 A 
HETATM    3  C   UNL     1       3.147  15.074  24.478  0.00  0.00     0.010 A 
HETATM    4  C   UNL     1       3.891  16.061  23.839  0.00  0.00     0.001 A 
HETATM    5  C   UNL     1       5.129  15.745  23.271  0.00  0.00     0.001 A 
HETATM    6  C   UNL     1       5.635  14.438  23.325  0.00  0.00     0.013 A 
HETATM    7  C   UNL     1       4.888  13.428  23.914  0.00  0.00    -0.016 A 
HETATM    8  C   UNL     1       5.120  11.986  24.094  0.00  0.00    -0.003 A 
HETATM    9  C   UNL     1       4.032  11.485  24.867  0.00  0.00    -0.019 A 
HETATM   10  C   UNL     1       3.941  10.161  25.274  0.00  0.00     0.010 A 
HETATM   11  C   UNL     1       4.944   9.288  24.883  0.00  0.00     0.002 A 
HETATM   12  C   UNL     1       6.008   9.745  24.088  0.00  0.00     0.016 A 
HETATM   13  C   UNL     1       6.120  11.095  23.672  0.00  0.00     0.022 A 
ENDROOT
BRANCH   1  14
HETATM   14  N   UNL     1       1.736  12.292  24.563  0.00  0.00    -0.344 N 
HETATM   15  C   UNL     1       0.573  12.821  25.071  0.00  0.00     0.253 C 
HETATM   16  O   UNL     1       0.546  13.545  26.059  0.00  0.00    -0.268 OA
HETATM   17  H   UNL     1       1.705  11.513  23.922  0.00  0.00     0.163 HD
BRANCH  15  18
HETATM   18  C   UNL     1      -0.675  12.475  24.347  0.00  0.00     0.047 A 
HETATM   19  C   UNL     1      -1.725  11.793  24.980  0.00  0.00     0.037 A 
HETATM   20  C   UNL     1      -2.836  11.435  24.233  0.00  0.00     0.120 A 
HETATM   21  N   UNL     1      -3.012  11.679  22.917  0.00  0.00    -0.242 NA
HETATM   22  C   UNL     1      -1.977  12.329  22.357  0.00  0.00     0.138 A 
HETATM   23  N   UNL     1      -1.915  12.671  21.033  0.00  0.00    -0.350 N 
HETATM   24  C   UNL     1      -0.805  12.756  22.972  0.00  0.00     0.027 A 
HETATM   25  H   UNL     1      -2.639  12.450  20.365  0.00  0.00     0.166 HD
HETATM   26  C   UNL     1      -0.744  13.337  20.780  0.00  0.00     0.090 A 
HETATM   27  C   UNL     1      -0.033  13.398  21.961  0.00  0.00     0.033 A 
ENDBRANCH  15  18
ENDBRANCH   1  14
BRANCH  13  28
HETATM   28  C   UNL     1       7.230  11.471  22.785  0.00  0.00     0.140 A 
HETATM   29  N   UNL     1       8.467  11.743  23.153  0.00  0.00    -0.227 NA
HETATM   30  C   UNL     1       9.189  11.940  22.007  0.00  0.00     0.103 A 
HETATM   31  C   UNL     1      10.560  12.141  21.825  0.00  0.00     0.150 A 
HETATM   32  C   UNL     1       8.357  11.914  20.897  0.00  0.00     0.065 A 
HETATM   33  N   UNL     1      11.060  12.334  20.576  0.00  0.00    -0.271 NA
HETATM   34  C   UNL     1      10.203  12.338  19.527  0.00  0.00     0.118 A 
HETATM   35  C   UNL     1       8.830  12.132  19.606  0.00  0.00     0.051 A 
HETATM   36  N   UNL     1       7.118  11.627  21.414  0.00  0.00    -0.338 N 
HETATM   37  H   UNL     1       6.273  11.498  20.879  0.00  0.00     0.167 HD
ENDBRANCH  13  28
TORSDOF 3
ENDMDL
MODEL 3
REMARK VINA RESULT:   -10.435      2.641      9.190
REMARK INTER + INTRA:         -12.944
REMARK INTER:                 -11.773
REMARK INTRA:                  -1.171
REMARK UNBOUND:                -0.679
REMARK  3 active torsions:
REMARK  status: ('A' for Active; 'I' for Inactive)
REMARK       I    between atoms: C_2  and  N_3 
REMARK    1  A    between atoms: C_2  and  C_27 
REMARK    2  A    between atoms: N_3  and  C_4 
REMARK    3  A    between atoms: C_16  and  C_17 
ROOT
HETATM    1  C   UNL     1       6.017  13.326  25.328  0.00  0.00     0.153 A 
HETATM    2  C   UNL     1       5.446  12.108  24.636  0.00  0.00    -0.020 A 
HETATM    3  C   UNL     1       6.164  11.029  24.129  0.00  0.00     0.010 A 
HETATM    4  C   UNL     1       5.459   9.982  23.543  0.00  0.00     0.001 A 
HETATM    5  C   UNL     1       4.061  10.018  23.503  0.00  0.00     0.001 A 
HETATM    6  C   UNL     1       3.352  11.104  24.037  0.00  0.00     0.013 A 
HETATM    7  C   UNL     1       4.036  12.181  24.580  0.00  0.00    -0.016 A 
HETATM    8  C   UNL     1       3.593  13.452  25.174  0.00  0.00    -0.003 A 
HETATM    9  C   UNL     1       4.761  14.116  25.651  0.00  0.00    -0.019 A 
HETATM   10  C   UNL     1       4.719  15.333  26.318  0.00  0.00     0.010 A 
HETATM   11  C   UNL     1       3.484  15.935  26.499  0.00  0.00     0.002 A 
HETATM   12  C   UNL     1       2.320  15.324  26.005  0.00  0.00     0.016 A 
HETATM   13  C   UNL     1       2.345  14.077  25.330  0.00  0.00     0.022 A 
ENDROOT
BRANCH   1  14
HETATM   14  N   UNL     1       6.888  14.049  24.431  0.00  0.00    -0.344 N 
HETATM   15  C   UNL     1       8.252  14.057  24.608  0.00  0.00     0.253 C 
HETATM   16  O   UNL     1       8.807  13.472  25.528  0.00  0.00    -0.268 OA
HETATM   17  H   UNL     1       6.447  14.732  23.833  0.00  0.00     0.163 HD
BRANCH  15  18
HETATM   18  C   UNL     1       9.038  14.817  23.605  0.00  0.00     0.047 A 
HETATM   19  C   UNL     1       9.945  15.816  23.987  0.00  0.00     0.037 A 
HETATM   20  C   UNL     1      10.599  16.539  23.002  0.00  0.00     0.120 A 
HETATM   21  N   UNL     1      10.439  16.379  21.672  0.00  0.00    -0.242 NA
HETATM   22  C   UNL     1       9.555  15.416  21.357  0.00  0.00     0.138 A 
HETATM   23  N   UNL     1       9.212  15.082  20.075  0.00  0.00    -0.350 N 
HETATM   24  C   UNL     1       8.831  14.607  22.226  0.00  0.00     0.027 A 
HETATM   25  H   UNL     1       9.586  15.543  19.259  0.00  0.00     0.166 HD
HETATM   26  C   UNL     1       8.304  14.055  20.090  0.00  0.00     0.090 A 
HETATM   27  C   UNL     1       8.045  13.744  21.408  0.00  0.00     0.033 A 
ENDBRANCH  15  18
ENDBRANCH   1  14
BRANCH  13  28
HETATM   28  C   UNL     1       1.088  13.543  24.787  0.00  0.00     0.140 A 
HETATM   29  N   UNL     1       0.640  13.698  23.557  0.00  0.00    -0.227 NA
HETATM   30  C   UNL     1      -0.505  12.955  23.453  0.00  0.00     0.103 A 
HETATM   31  C   UNL     1      -1.306  12.678  22.343  0.00  0.00     0.150 A 
HETATM   32  C   UNL     1      -0.851  12.420  24.686  0.00  0.00     0.065 A 
HETATM   33  N   UNL     1      -2.424  11.917  22.482  0.00  0.00    -0.271 NA
HETATM   34  C   UNL     1      -2.741  11.448  23.713  0.00  0.00     0.118 A 
HETATM   35  C   UNL     1      -1.999  11.656  24.871  0.00  0.00     0.051 A 
HETATM   36  N   UNL     1       0.166  12.815  25.519  0.00  0.00    -0.338 N 
HETATM   37  H   UNL     1       0.256  12.571  26.494  0.00  0.00     0.167 HD
ENDBRANCH  13  28
TORSDOF 3
ENDMDL
MODEL 4
REMARK VINA RESULT:   -10.364      2.001      9.436
REMARK INTER + INTRA:         -12.860
REMARK INTER:                 -11.734
REMARK INTRA:                  -1.126
REMARK UNBOUND:                -0.679
REMARK  3 active torsions:
REMARK  status: ('A' for Active; 'I' for Inactive)
REMARK       I    between atoms: C_2  and  N_3 
REMARK    1  A    between atoms: C_2  and  C_27 
REMARK    2  A    between atoms: N_3  and  C_4 
REMARK    3  A    between atoms: C_16  and  C_17 
ROOT
HETATM    1  C   UNL     1       6.155  12.665  24.445  0.00  0.00     0.153 A 
HETATM    2  C   UNL     1       5.339  11.392  24.479  0.00  0.00    -0.020 A 
HETATM    3  C   UNL     1       5.829  10.096  24.607  0.00  0.00     0.010 A 
HETATM    4  C   UNL     1       4.918   9.045  24.642  0.00  0.00     0.001 A 
HETATM    5  C   UNL     1       3.545   9.308  24.580  0.00  0.00     0.001 A 
HETATM    6  C   UNL     1       3.068  10.622  24.471  0.00  0.00     0.013 A 
HETATM    7  C   UNL     1       3.959  11.681  24.384  0.00  0.00    -0.016 A 
HETATM    8  C   UNL     1       3.778  13.133  24.232  0.00  0.00    -0.003 A 
HETATM    9  C   UNL     1       5.074  13.722  24.305  0.00  0.00    -0.019 A 
HETATM   10  C   UNL     1       5.285  15.093  24.246  0.00  0.00     0.010 A 
HETATM   11  C   UNL     1       4.182  15.917  24.082  0.00  0.00     0.002 A 
HETATM   12  C   UNL     1       2.897  15.361  23.967  0.00  0.00     0.016 A 
HETATM   13  C   UNL     1       2.663  13.965  24.035  0.00  0.00     0.022 A 
ENDROOT
BRANCH   1  14
HETATM   14  N   UNL     1       7.047  12.659  23.309  0.00  0.00    -0.344 N 
HETATM   15  C   UNL     1       8.402  12.476  23.463  0.00  0.00     0.253 C 
HETATM   16  O   UNL     1       8.933  12.322  24.555  0.00  0.00    -0.268 OA
HETATM   17  H   UNL     1       6.677  13.031  22.447  0.00  0.00     0.163 HD
BRANCH  15  18
HETATM   18  C   UNL     1       9.206  12.466  22.216  0.00  0.00     0.047 A 
HETATM   19  C   UNL     1       9.412  11.286  21.485  0.00  0.00     0.037 A 
HETATM   20  C   UNL     1      10.230  11.326  20.368  0.00  0.00     0.120 A 
HETATM   21  N   UNL     1      10.875  12.416  19.903  0.00  0.00    -0.242 NA
HETATM   22  C   UNL     1      10.651  13.518  20.640  0.00  0.00     0.138 A 
HETATM   23  N   UNL     1      11.208  14.740  20.378  0.00  0.00    -0.350 N 
HETATM   24  C   UNL     1       9.856  13.636  21.775  0.00  0.00     0.027 A 
HETATM   25  H   UNL     1      11.846  14.911  19.614  0.00  0.00     0.166 HD
HETATM   26  C   UNL     1      10.771  15.657  21.299  0.00  0.00     0.090 A 
HETATM   27  C   UNL     1       9.938  15.000  22.180  0.00  0.00     0.033 A 
ENDBRANCH  15  18
ENDBRANCH   1  14
BRANCH  13  28
HETATM   28  C   UNL     1       1.295  13.467  23.838  0.00  0.00     0.140 A 
HETATM   29  N   UNL     1       0.597  13.522  22.721  0.00  0.00    -0.227 NA
HETATM   30  C   UNL     1      -0.577  12.856  22.951  0.00  0.00     0.103 A 
HETATM   31  C   UNL     1      -1.613  12.521  22.077  0.00  0.00     0.150 A 
HETATM   32  C   UNL     1      -0.670  12.481  24.283  0.00  0.00     0.065 A 
HETATM   33  N   UNL     1      -2.708  11.860  22.539  0.00  0.00    -0.271 NA
HETATM   34  C   UNL     1      -2.770  11.549  23.855  0.00  0.00     0.118 A 
HETATM   35  C   UNL     1      -1.784  11.825  24.797  0.00  0.00     0.051 A 
HETATM   36  N   UNL     1       0.522  12.889  24.829  0.00  0.00    -0.338 N 
HETATM   37  H   UNL     1       0.811  12.744  25.785  0.00  0.00     0.167 HD
ENDBRANCH  13  28
TORSDOF 3
ENDMDL
MODEL 5
REMARK VINA RESULT:   -10.031      4.209      8.689
REMARK INTER + INTRA:         -12.469
REMARK INTER:                 -11.344
REMARK INTRA:                  -1.125
REMARK UNBOUND:                -0.679
REMARK  3 active torsions:
REMARK  status: ('A' for Active; 'I' for Inactive)
REMARK       I    between atoms: C_2  and  N_3 
REMARK    1  A    between atoms: C_2  and  C_27 
REMARK    2  A    between atoms: N_3  and  C_4 
REMARK    3  A    between atoms: C_16  and  C_17 
ROOT
HETATM    1  C   UNL     1       7.517  14.351  22.775  0.00  0.00     0.153 A 
HETATM    2  C   UNL     1       6.083  13.923  22.991  0.00  0.00    -0.020 A 
HETATM    3  C   UNL     1       5.157  14.518  23.843  0.00  0.00     0.010 A 
HETATM    4  C   UNL     1       3.869  13.995  23.890  0.00  0.00     0.001 A 
HETATM    5  C   UNL     1       3.523  12.914  23.072  0.00  0.00     0.001 A 
HETATM    6  C   UNL     1       4.463  12.338  22.205  0.00  0.00     0.013 A 
HETATM    7  C   UNL     1       5.766  12.811  22.177  0.00  0.00    -0.016 A 
HETATM    8  C   UNL     1       6.963  12.409  21.422  0.00  0.00    -0.003 A 
HETATM    9  C   UNL     1       7.991  13.341  21.746  0.00  0.00    -0.019 A 
HETATM   10  C   UNL     1       9.257  13.297  21.177  0.00  0.00     0.010 A 
HETATM   11  C   UNL     1       9.533  12.282  20.275  0.00  0.00     0.002 A 
HETATM   12  C   UNL     1       8.551  11.326  19.967  0.00  0.00     0.016 A 
HETATM   13  C   UNL     1       7.251  11.361  20.531  0.00  0.00     0.022 A 
ENDROOT
BRANCH   1  14
HETATM   14  N   UNL     1       8.261  14.248  24.009  0.00  0.00    -0.344 N 
HETATM   15  C   UNL     1       9.338  15.065  24.267  0.00  0.00     0.253 C 
HETATM   16  O   UNL     1       9.736  15.910  23.476  0.00  0.00    -0.268 OA
HETATM   17  H   UNL     1       8.116  13.409  24.550  0.00  0.00     0.163 HD
BRANCH  15  18
HETATM   18  C   UNL     1      10.003  14.876  25.579  0.00  0.00     0.047 A 
HETATM   19  C   UNL     1       9.428  15.350  26.768  0.00  0.00     0.037 A 
HETATM   20  C   UNL     1      10.130  15.206  27.954  0.00  0.00     0.120 A 
HETATM   21  N   UNL     1      11.351  14.644  28.083  0.00  0.00    -0.242 NA
HETATM   22  C   UNL     1      11.860  14.212  26.917  0.00  0.00     0.138 A 
HETATM   23  N   UNL     1      13.090  13.625  26.790  0.00  0.00    -0.350 N 
HETATM   24  C   UNL     1      11.279  14.280  25.656  0.00  0.00     0.027 A 
HETATM   25  H   UNL     1      13.722  13.481  27.564  0.00  0.00     0.166 HD
HETATM   26  C   UNL     1      13.308  13.283  25.481  0.00  0.00     0.090 A 
HETATM   27  C   UNL     1      12.206  13.682  24.754  0.00  0.00     0.033 A 
ENDBRANCH  15  18
ENDBRANCH   1  14
BRANCH  13  28
HETATM   28  C   UNL     1       6.309  10.282  20.204  0.00  0.00     0.140 A 
HETATM   29  N   UNL     1       5.720  10.085  19.041  0.00  0.00    -0.227 NA
HETATM   30  C   UNL     1       5.012   8.918  19.145  0.00  0.00     0.103 A 
HETATM   31  C   UNL     1       4.308   8.198  18.177  0.00  0.00     0.150 A 
HETATM   32  C   UNL     1       5.059   8.435  20.445  0.00  0.00     0.065 A 
HETATM   33  N   UNL     1       3.657   7.054  18.519  0.00  0.00    -0.271 NA
HETATM   34  C   UNL     1       3.700   6.643  19.808  0.00  0.00     0.118 A 
HETATM   35  C   UNL     1       4.386   7.282  20.836  0.00  0.00     0.051 A 
HETATM   36  N   UNL     1       5.877   9.322  21.101  0.00  0.00    -0.338 N 
HETATM   37  H   UNL     1       6.160   9.255  22.068  0.00  0.00     0.167 HD
ENDBRANCH  13  28
TORSDOF 3
ENDMDL
MODEL 6
REMARK VINA RESULT:    -9.953      2.863      4.253
REMARK INTER + INTRA:         -12.378
REMARK INTER:                 -11.513
REMARK INTRA:                  -0.865
REMARK UNBOUND:                -0.679
REMARK  3 active torsions:
REMARK  status: ('A' for Active; 'I' for Inactive)
REMARK       I    between atoms: C_2  and  N_3 
REMARK    1  A    between atoms: C_2  and  C_27 
REMARK    2  A    between atoms: N_3  and  C_4 
REMARK    3  A    between atoms: C_16  and  C_17 
ROOT
HETATM    1  C   UNL     1       3.048  12.557  22.771  0.00  0.00     0.153 A 
HETATM    2  C   UNL     1       4.308  11.986  22.160  0.00  0.00    -0.020 A 
HETATM    3  C   UNL     1       4.402  10.849  21.364  0.00  0.00     0.010 A 
HETATM    4  C   UNL     1       5.652  10.489  20.870  0.00  0.00     0.001 A 
HETATM    5  C   UNL     1       6.770  11.281  21.153  0.00  0.00     0.001 A 
HETATM    6  C   UNL     1       6.654  12.435  21.942  0.00  0.00     0.013 A 
HETATM    7  C   UNL     1       5.427  12.785  22.486  0.00  0.00    -0.016 A 
HETATM    8  C   UNL     1       4.997  13.888  23.359  0.00  0.00    -0.003 A 
HETATM    9  C   UNL     1       3.583  13.777  23.500  0.00  0.00    -0.019 A 
HETATM   10  C   UNL     1       2.823  14.685  24.225  0.00  0.00     0.010 A 
HETATM   11  C   UNL     1       3.480  15.728  24.858  0.00  0.00     0.002 A 
HETATM   12  C   UNL     1       4.877  15.840  24.769  0.00  0.00     0.016 A 
HETATM   13  C   UNL     1       5.667  14.927  24.026  0.00  0.00     0.022 A 
ENDROOT
BRANCH   1  14
HETATM   14  N   UNL     1       2.457  11.606  23.683  0.00  0.00    -0.344 N 
HETATM   15  C   UNL     1       1.097  11.546  23.875  0.00  0.00     0.253 C 
HETATM   16  O   UNL     1       0.311  12.291  23.305  0.00  0.00    -0.268 OA
HETATM   17  H   UNL     1       3.086  11.167  24.341  0.00  0.00     0.163 HD
BRANCH  15  18
HETATM   18  C   UNL     1       0.614  10.509  24.820  0.00  0.00     0.047 A 
HETATM   19  C   UNL     1       1.157   9.216  24.830  0.00  0.00     0.037 A 
HETATM   20  C   UNL     1       0.617   8.270  25.687  0.00  0.00     0.120 A 
HETATM   21  N   UNL     1      -0.415   8.473  26.533  0.00  0.00    -0.242 NA
HETATM   22  C   UNL     1      -0.904   9.724  26.481  0.00  0.00     0.138 A 
HETATM   23  N   UNL     1      -1.961  10.164  27.230  0.00  0.00    -0.350 N 
HETATM   24  C   UNL     1      -0.468  10.777  25.684  0.00  0.00     0.027 A 
HETATM   25  H   UNL     1      -2.470   9.578  27.876  0.00  0.00     0.166 HD
HETATM   26  C   UNL     1      -2.203  11.486  26.961  0.00  0.00     0.090 A 
HETATM   27  C   UNL     1      -1.298  11.891  26.002  0.00  0.00     0.033 A 
ENDBRANCH  15  18
ENDBRANCH   1  14
BRANCH  13  28
HETATM   28  C   UNL     1       7.129  15.080  24.043  0.00  0.00     0.140 A 
HETATM   29  N   UNL     1       7.914  14.961  25.094  0.00  0.00    -0.227 NA
HETATM   30  C   UNL     1       9.202  15.078  24.645  0.00  0.00     0.103 A 
HETATM   31  C   UNL     1      10.414  14.915  25.319  0.00  0.00     0.150 A 
HETATM   32  C   UNL     1       9.218  15.404  23.296  0.00  0.00     0.065 A 
HETATM   33  N   UNL     1      11.590  15.101  24.663  0.00  0.00    -0.271 NA
HETATM   34  C   UNL     1      11.555  15.454  23.356  0.00  0.00     0.118 A 
HETATM   35  C   UNL     1      10.401  15.624  22.597  0.00  0.00     0.051 A 
HETATM   36  N   UNL     1       7.893  15.411  22.938  0.00  0.00    -0.338 N 
HETATM   37  H   UNL     1       7.536  15.579  22.009  0.00  0.00     0.167 HD
ENDBRANCH  13  28
TORSDOF 3
ENDMDL
MODEL 7
REMARK VINA RESULT:    -9.850      2.677      4.418
REMARK INTER + INTRA:         -12.256
REMARK INTER:                 -11.177
REMARK INTRA:                  -1.079
REMARK UNBOUND:                -0.679
REMARK  3 active torsions:
REMARK  status: ('A' for Active; 'I' for Inactive)
REMARK       I    between atoms: C_2  and  N_3 
REMARK    1  A    between atoms: C_2  and  C_27 
REMARK    2  A    between atoms: N_3  and  C_4 
REMARK    3  A    between atoms: C_16  and  C_17 
ROOT
HETATM    1  C   UNL     1       3.033  12.529  22.921  0.00  0.00     0.153 A 
HETATM    2  C   UNL     1       4.281  11.689  22.765  0.00  0.00    -0.020 A 
HETATM    3  C   UNL     1       4.346  10.374  22.315  0.00  0.00     0.010 A 
HETATM    4  C   UNL     1       5.595   9.770  22.216  0.00  0.00     0.001 A 
HETATM    5  C   UNL     1       6.749  10.493  22.537  0.00  0.00     0.001 A 
HETATM    6  C   UNL     1       6.667  11.825  22.970  0.00  0.00     0.013 A 
HETATM    7  C   UNL     1       5.429  12.431  23.124  0.00  0.00    -0.016 A 
HETATM    8  C   UNL     1       5.018  13.768  23.581  0.00  0.00    -0.003 A 
HETATM    9  C   UNL     1       3.603  13.842  23.427  0.00  0.00    -0.019 A 
HETATM   10  C   UNL     1       2.870  14.985  23.717  0.00  0.00     0.010 A 
HETATM   11  C   UNL     1       3.550  16.090  24.204  0.00  0.00     0.002 A 
HETATM   12  C   UNL     1       4.939  16.033  24.404  0.00  0.00     0.016 A 
HETATM   13  C   UNL     1       5.704  14.877  24.103  0.00  0.00     0.022 A 
ENDROOT
BRANCH   1  14
HETATM   14  N   UNL     1       2.141  11.927  23.884  0.00  0.00    -0.344 N 
HETATM   15  C   UNL     1       0.776  12.067  23.783  0.00  0.00     0.253 C 
HETATM   16  O   UNL     1       0.237  12.710  22.891  0.00  0.00    -0.268 OA
HETATM   17  H   UNL     1       2.559  11.617  24.749  0.00  0.00     0.163 HD
BRANCH  15  18
HETATM   18  C   UNL     1      -0.031  11.380  24.821  0.00  0.00     0.047 A 
HETATM   19  C   UNL     1      -0.952  12.079  25.616  0.00  0.00     0.037 A 
HETATM   20  C   UNL     1      -1.625  11.396  26.617  0.00  0.00     0.120 A 
HETATM   21  N   UNL     1      -1.476  10.089  26.915  0.00  0.00    -0.242 NA
HETATM   22  C   UNL     1      -0.580   9.466  26.130  0.00  0.00     0.138 A 
HETATM   23  N   UNL     1      -0.243   8.145  26.252  0.00  0.00    -0.350 N 
HETATM   24  C   UNL     1       0.166  10.010  25.090  0.00  0.00     0.027 A 
HETATM   25  H   UNL     1      -0.633   7.532  26.954  0.00  0.00     0.166 HD
HETATM   26  C   UNL     1       0.681   7.811  25.297  0.00  0.00     0.090 A 
HETATM   27  C   UNL     1       0.958   8.947  24.566  0.00  0.00     0.033 A 
ENDBRANCH  15  18
ENDBRANCH   1  14
BRANCH  13  28
HETATM   28  C   UNL     1       7.142  14.883  24.407  0.00  0.00     0.140 A 
HETATM   29  N   UNL     1       7.688  14.802  25.604  0.00  0.00    -0.227 NA
HETATM   30  C   UNL     1       9.043  14.737  25.420  0.00  0.00     0.103 A 
HETATM   31  C   UNL     1      10.072  14.528  26.341  0.00  0.00     0.150 A 
HETATM   32  C   UNL     1       9.360  14.907  24.080  0.00  0.00     0.065 A 
HETATM   33  N   UNL     1      11.367  14.519  25.926  0.00  0.00    -0.271 NA
HETATM   34  C   UNL     1      11.629  14.727  24.614  0.00  0.00     0.118 A 
HETATM   35  C   UNL     1      10.674  14.928  23.622  0.00  0.00     0.051 A 
HETATM   36  N   UNL     1       8.141  15.009  23.457  0.00  0.00    -0.338 N 
HETATM   37  H   UNL     1       7.994  15.108  22.464  0.00  0.00     0.167 HD
ENDBRANCH  13  28
TORSDOF 3
ENDMDL
MODEL 8
REMARK VINA RESULT:    -9.461      2.917      9.087
REMARK INTER + INTRA:         -11.799
REMARK INTER:                 -11.155
REMARK INTRA:                  -0.644
REMARK UNBOUND:                -0.679
REMARK  3 active torsions:
REMARK  status: ('A' for Active; 'I' for Inactive)
REMARK       I    between atoms: C_2  and  N_3 
REMARK    1  A    between atoms: C_2  and  C_27 
REMARK    2  A    between atoms: N_3  and  C_4 
REMARK    3  A    between atoms: C_16  and  C_17 
ROOT
HETATM    1  C   UNL     1       6.595  13.699  22.176  0.00  0.00     0.153 A 
HETATM    2  C   UNL     1       5.489  14.362  22.966  0.00  0.00    -0.020 A 
HETATM    3  C   UNL     1       5.424  15.701  23.340  0.00  0.00     0.010 A 
HETATM    4  C   UNL     1       4.309  16.136  24.050  0.00  0.00     0.001 A 
HETATM    5  C   UNL     1       3.276  15.240  24.345  0.00  0.00     0.001 A 
HETATM    6  C   UNL     1       3.349  13.898  23.944  0.00  0.00     0.013 A 
HETATM    7  C   UNL     1       4.473  13.431  23.279  0.00  0.00    -0.016 A 
HETATM    8  C   UNL     1       4.857  12.106  22.770  0.00  0.00    -0.003 A 
HETATM    9  C   UNL     1       6.096  12.268  22.084  0.00  0.00    -0.019 A 
HETATM   10  C   UNL     1       6.739  11.226  21.429  0.00  0.00     0.010 A 
HETATM   11  C   UNL     1       6.157   9.969  21.473  0.00  0.00     0.002 A 
HETATM   12  C   UNL     1       4.957   9.771  22.175  0.00  0.00     0.016 A 
HETATM   13  C   UNL     1       4.283  10.825  22.841  0.00  0.00     0.022 A 
ENDROOT
BRANCH   1  14
HETATM   14  N   UNL     1       7.845  13.784  22.894  0.00  0.00    -0.344 N 
HETATM   15  C   UNL     1       9.039  13.966  22.237  0.00  0.00     0.253 C 
HETATM   16  O   UNL     1       9.121  14.054  21.018  0.00  0.00    -0.268 OA
HETATM   17  H   UNL     1       7.833  13.464  23.852  0.00  0.00     0.163 HD
BRANCH  15  18
HETATM   18  C   UNL     1      10.249  14.061  23.090  0.00  0.00     0.047 A 
HETATM   19  C   UNL     1      10.898  15.285  23.309  0.00  0.00     0.037 A 
HETATM   20  C   UNL     1      12.064  15.300  24.058  0.00  0.00     0.120 A 
HETATM   21  N   UNL     1      12.659  14.221  24.609  0.00  0.00    -0.242 NA
HETATM   22  C   UNL     1      12.002  13.073  24.367  0.00  0.00     0.138 A 
HETATM   23  N   UNL     1      12.419  11.846  24.806  0.00  0.00    -0.350 N 
HETATM   24  C   UNL     1      10.827  12.900  23.644  0.00  0.00     0.027 A 
HETATM   25  H   UNL     1      13.265  11.702  25.338  0.00  0.00     0.166 HD
HETATM   26  C   UNL     1      11.527  10.884  24.410  0.00  0.00     0.090 A 
HETATM   27  C   UNL     1      10.535  11.506  23.683  0.00  0.00     0.033 A 
ENDBRANCH  15  18
ENDBRANCH   1  14
BRANCH  13  28
HETATM   28  C   UNL     1       3.068  10.515  23.607  0.00  0.00     0.140 A 
HETATM   29  N   UNL     1       2.848   9.424  24.314  0.00  0.00    -0.227 NA
HETATM   30  C   UNL     1       1.643   9.592  24.943  0.00  0.00     0.103 A 
HETATM   31  C   UNL     1       1.000   8.796  25.893  0.00  0.00     0.150 A 
HETATM   32  C   UNL     1       1.035  10.766  24.522  0.00  0.00     0.065 A 
HETATM   33  N   UNL     1      -0.219   9.160  26.373  0.00  0.00    -0.271 NA
HETATM   34  C   UNL     1      -0.790  10.295  25.904  0.00  0.00     0.118 A 
HETATM   35  C   UNL     1      -0.221  11.158  24.974  0.00  0.00     0.051 A 
HETATM   36  N   UNL     1       1.950  11.329  23.667  0.00  0.00    -0.338 N 
HETATM   37  H   UNL     1       1.849  12.217  23.198  0.00  0.00     0.167 HD
ENDBRANCH  13  28
TORSDOF 3
ENDMDL
MODEL 9
REMARK VINA RESULT:    -9.422      2.951      9.064
REMARK INTER + INTRA:         -11.753
REMARK INTER:                 -11.074
REMARK INTRA:                  -0.679
REMARK UNBOUND:                -0.679
REMARK  3 active torsions:
REMARK  status: ('A' for Active; 'I' for Inactive)
REMARK       I    between atoms: C_2  and  N_3 
REMARK    1  A    between atoms: C_2  and  C_27 
REMARK    2  A    between atoms: N_3  and  C_4 
REMARK    3  A    between atoms: C_16  and  C_17 
ROOT
HETATM    1  C   UNL     1       6.855  12.904  22.742  0.00  0.00     0.153 A 
HETATM    2  C   UNL     1       5.827  13.935  23.150  0.00  0.00    -0.020 A 
HETATM    3  C   UNL     1       6.034  15.305  23.284  0.00  0.00     0.010 A 
HETATM    4  C   UNL     1       4.955  16.105  23.649  0.00  0.00     0.001 A 
HETATM    5  C   UNL     1       3.694  15.531  23.842  0.00  0.00     0.001 A 
HETATM    6  C   UNL     1       3.498  14.151  23.683  0.00  0.00     0.013 A 
HETATM    7  C   UNL     1       4.570  13.328  23.369  0.00  0.00    -0.016 A 
HETATM    8  C   UNL     1       4.694  11.875  23.173  0.00  0.00    -0.003 A 
HETATM    9  C   UNL     1       6.037  11.625  22.766  0.00  0.00    -0.019 A 
HETATM   10  C   UNL     1       6.505  10.358  22.444  0.00  0.00     0.010 A 
HETATM   11  C   UNL     1       5.627   9.291  22.554  0.00  0.00     0.002 A 
HETATM   12  C   UNL     1       4.309   9.502  22.991  0.00  0.00     0.016 A 
HETATM   13  C   UNL     1       3.813  10.790  23.314  0.00  0.00     0.022 A 
ENDROOT
BRANCH   1  14
HETATM   14  N   UNL     1       7.935  12.866  23.700  0.00  0.00    -0.344 N 
HETATM   15  C   UNL     1       9.185  13.347  23.390  0.00  0.00     0.253 C 
HETATM   16  O   UNL     1       9.464  13.820  22.295  0.00  0.00    -0.268 OA
HETATM   17  H   UNL     1       7.804  12.262  24.498  0.00  0.00     0.163 HD
BRANCH  15  18
HETATM   18  C   UNL     1      10.202  13.273  24.468  0.00  0.00     0.047 A 
HETATM   19  C   UNL     1      11.299  12.404  24.384  0.00  0.00     0.037 A 
HETATM   20  C   UNL     1      12.177  12.329  25.454  0.00  0.00     0.120 A 
HETATM   21  N   UNL     1      12.074  13.024  26.606  0.00  0.00    -0.242 NA
HETATM   22  C   UNL     1      11.004  13.837  26.640  0.00  0.00     0.138 A 
HETATM   23  N   UNL     1      10.678  14.628  27.708  0.00  0.00    -0.350 N 
HETATM   24  C   UNL     1      10.045  14.025  25.651  0.00  0.00     0.027 A 
HETATM   25  H   UNL     1      11.210  14.655  28.566  0.00  0.00     0.166 HD
HETATM   26  C   UNL     1       9.546  15.348  27.425  0.00  0.00     0.090 A 
HETATM   27  C   UNL     1       9.128  14.990  26.160  0.00  0.00     0.033 A 
ENDBRANCH  15  18
ENDBRANCH   1  14
BRANCH  13  28
HETATM   28  C   UNL     1       2.441  10.910  23.827  0.00  0.00     0.140 A 
HETATM   29  N   UNL     1       1.844  10.082  24.661  0.00  0.00    -0.227 NA
HETATM   30  C   UNL     1       0.621  10.624  24.953  0.00  0.00     0.103 A 
HETATM   31  C   UNL     1      -0.355  10.215  25.866  0.00  0.00     0.150 A 
HETATM   32  C   UNL     1       0.397  11.759  24.188  0.00  0.00     0.065 A 
HETATM   33  N   UNL     1      -1.518  10.910  25.976  0.00  0.00    -0.271 NA
HETATM   34  C   UNL     1      -1.707  11.990  25.181  0.00  0.00     0.118 A 
HETATM   35  C   UNL     1      -0.790  12.481  24.257  0.00  0.00     0.051 A 
HETATM   36  N   UNL     1       1.558  11.915  23.473  0.00  0.00    -0.338 N 
HETATM   37  H   UNL     1       1.758  12.669  22.832  0.00  0.00     0.167 HD
ENDBRANCH  13  28
TORSDOF 3
ENDMDL
