REMARK  3 active torsions:
REMARK  status: ('A' for Active; 'I' for Inactive)
REMARK       I    between atoms: C_2  and  N_3 
REMARK    1  A    between atoms: C_2  and  C_27 
REMARK    2  A    between atoms: N_3  and  C_4 
REMARK    3  A    between atoms: C_16  and  C_17 
ROOT
HETATM    1  C   UNL     1       2.269   0.580  -2.430  0.00  0.00     0.153 A 
HETATM    2  C   UNL     1       1.850   2.032  -2.489  0.00  0.00    -0.020 A 
HETATM    3  C   UNL     1       2.689   3.141  -2.431  0.00  0.00     0.010 A 
HETATM    4  C   UNL     1       2.119   4.407  -2.525  0.00  0.00     0.001 A 
HETATM    5  C   UNL     1       0.738   4.540  -2.703  0.00  0.00     0.001 A 
HETATM    6  C   UNL     1      -0.091   3.411  -2.779  0.00  0.00     0.013 A 
HETATM    7  C   UNL     1       0.449   2.141  -2.638  0.00  0.00    -0.016 A 
HETATM    8  C   UNL     1      -0.144   0.795  -2.636  0.00  0.00    -0.003 A 
HETATM    9  C   UNL     1       0.934  -0.133  -2.550  0.00  0.00    -0.019 A 
HETATM   10  C   UNL     1       0.750  -1.509  -2.571  0.00  0.00     0.010 A 
HETATM   11  C   UNL     1      -0.546  -1.993  -2.652  0.00  0.00     0.002 A 
HETATM   12  C   UNL     1      -1.631  -1.102  -2.698  0.00  0.00     0.016 A 
HETATM   13  C   UNL     1      -1.460   0.305  -2.687  0.00  0.00     0.022 A 
ENDROOT
BRANCH   1  14
HETATM   14  N   UNL     1       2.916   0.296  -1.170  0.00  0.00    -0.344 N 
HETATM   15  C   UNL     1       3.880  -0.679  -1.063  0.00  0.00     0.253 C 
HETATM   16  O   UNL     1       4.239  -1.367  -2.010  0.00  0.00    -0.268 OA
HETATM   17  H   UNL     1       2.466   0.662  -0.344  0.00  0.00     0.163 HD
BRANCH  15  18
HETATM   18  C   UNL     1       4.485  -0.857   0.280  0.00  0.00     0.047 A 
HETATM   19  C   UNL     1       4.565   0.203   1.195  0.00  0.00     0.037 A 
HETATM   20  C   UNL     1       5.204  -0.006   2.407  0.00  0.00     0.120 A 
HETATM   21  N   UNL     1       5.780  -1.160   2.804  0.00  0.00    -0.242 NA
HETATM   22  C   UNL     1       5.682  -2.142   1.891  0.00  0.00     0.138 A 
HETATM   23  N   UNL     1       6.204  -3.396   2.057  0.00  0.00    -0.350 N 
HETATM   24  C   UNL     1       5.071  -2.087   0.643  0.00  0.00     0.027 A 
HETATM   25  H   UNL     1       6.719  -3.682   2.877  0.00  0.00     0.166 HD
HETATM   26  C   UNL     1       5.921  -4.166   0.959  0.00  0.00     0.090 A 
HETATM   27  C   UNL     1       5.226  -3.380   0.064  0.00  0.00     0.033 A 
ENDBRANCH  15  18
ENDBRANCH   1  14
BRANCH  13  28
HETATM   28  C   UNL     1      -2.654   1.162  -2.670  0.00  0.00     0.140 A 
HETATM   29  N   UNL     1      -2.769   2.329  -2.068  0.00  0.00    -0.227 NA
HETATM   30  C   UNL     1      -4.003   2.825  -2.393  0.00  0.00     0.103 A 
HETATM   31  C   UNL     1      -4.580   4.067  -2.118  0.00  0.00     0.150 A 
HETATM   32  C   UNL     1      -4.728   1.889  -3.116  0.00  0.00     0.065 A 
HETATM   33  N   UNL     1      -5.846   4.337  -2.533  0.00  0.00    -0.271 NA
HETATM   34  C   UNL     1      -6.528   3.378  -3.203  0.00  0.00     0.118 A 
HETATM   35  C   UNL     1      -6.034   2.121  -3.537  0.00  0.00     0.051 A 
HETATM   36  N   UNL     1      -3.858   0.838  -3.270  0.00  0.00    -0.338 N 
HETATM   37  H   UNL     1      -4.046  -0.011  -3.782  0.00  0.00     0.167 HD
ENDBRANCH  13  28
TORSDOF 3
