MODEL 1
REMARK VINA RESULT:    -8.609      0.000      0.000
REMARK INTER + INTRA:         -12.361
REMARK INTER:                 -11.774
REMARK INTRA:                  -0.587
REMARK UNBOUND:                -1.236
REMARK  6 active torsions:
REMARK  status: ('A' for Active; 'I' for Inactive)
REMARK    1  A    between atoms: C_3  and  O_4 
REMARK    2  A    between atoms: C_7  and  N_8 
REMARK       I    between atoms: N_8  and  C_10 
REMARK    3  A    between atoms: C_10  and  C_12 
REMARK    4  A    between atoms: C_14  and  O_15 
REMARK    5  A    between atoms: C_22  and  C_23 
REMARK    6  A    between atoms: C_23  and  C_24 
ROOT
HETATM    1  C   UNL     1       6.918  11.308  21.564  0.00  0.00     0.066 C 
HETATM    2  C   UNL     1       6.296  12.442  22.130  0.00  0.00     0.035 C 
HETATM    3  C   UNL     1       8.232  11.014  21.982  0.00  0.00     0.083 C 
HETATM    4  C   UNL     1       8.955  11.858  22.838  0.00  0.00     0.069 C 
HETATM    5  C   UNL     1       8.347  13.061  23.207  0.00  0.00     0.065 A 
HETATM    6  C   UNL     1       7.048  13.395  22.851  0.00  0.00     0.020 A 
HETATM    7  N   UNL     1       8.794  14.117  23.951  0.00  0.00    -0.277 N 
HETATM    8  H   UNL     1       9.686  14.203  24.424  0.00  0.00     0.189 HD
HETATM    9  N   UNL     1       7.937  15.150  24.013  0.00  0.00    -0.178 NA
HETATM   10  C   UNL     1       6.861  14.738  23.319  0.00  0.00     0.071 A 
ENDROOT
BRANCH   1  11
HETATM   11  C   UNL     1       6.259  10.409  20.526  0.00  0.00     0.260 C 
HETATM   12  N   UNL     1       5.250   9.456  20.880  0.00  0.00    -0.318 N 
HETATM   13  C   UNL     1       4.843   9.282  22.275  0.00  0.00     0.159 C 
HETATM   14  O   UNL     1       6.609  10.641  19.366  0.00  0.00    -0.267 OA
BRANCH  12  15
HETATM   15  C   UNL     1       4.672   8.514  19.920  0.00  0.00     0.037 A 
HETATM   16  C   UNL     1       4.682   8.796  18.535  0.00  0.00     0.032 A 
HETATM   17  C   UNL     1       3.994   8.019  17.595  0.00  0.00     0.039 A 
HETATM   18  C   UNL     1       3.308   6.900  18.019  0.00  0.00     0.065 A 
HETATM   19  C   UNL     1       3.357   6.522  19.351  0.00  0.00     0.039 A 
HETATM   20  C   UNL     1       4.035   7.321  20.292  0.00  0.00     0.032 A 
BRANCH  18  21
HETATM   21  O   UNL     1       2.574   6.153  17.148  0.00  0.00    -0.361 OA
HETATM   22  H   UNL     1       2.188   6.750  16.484  0.00  0.00     0.217 HD
ENDBRANCH  18  21
ENDBRANCH  12  15
ENDBRANCH   1  11
BRANCH   3  23
HETATM   23  O   UNL     1       8.912   9.882  21.594  0.00  0.00    -0.360 OA
HETATM   24  H   UNL     1       8.765   9.192  22.280  0.00  0.00     0.217 HD
ENDBRANCH   3  23
BRANCH  10  25
HETATM   25  C   UNL     1       5.703  15.696  23.130  0.00  0.00     0.100 C 
BRANCH  25  26
HETATM   26  C   UNL     1       4.497  15.297  23.978  0.00  0.00    -0.052 A 
HETATM   27  C   UNL     1       3.470  14.467  23.509  0.00  0.00     0.007 A 
HETATM   28  C   UNL     1       2.393  14.116  24.325  0.00  0.00     0.001 A 
HETATM   29  C   UNL     1       2.262  14.662  25.597  0.00  0.00     0.007 A 
HETATM   30  C   UNL     1       3.184  15.605  26.051  0.00  0.00    -0.061 A 
HETATM   31  C   UNL     1       4.320  15.883  25.257  0.00  0.00     0.014 A 
HETATM   32  C   UNL     1       2.927  16.298  27.361  0.00  0.00     0.048 C 
ENDBRANCH  25  26
ENDBRANCH  10  25
TORSDOF 6
ENDMDL
MODEL 2
REMARK VINA RESULT:    -8.556      3.899      5.204
REMARK INTER + INTRA:         -12.293
REMARK INTER:                 -11.602
REMARK INTRA:                  -0.691
REMARK UNBOUND:                -1.236
REMARK  6 active torsions:
REMARK  status: ('A' for Active; 'I' for Inactive)
REMARK    1  A    between atoms: C_3  and  O_4 
REMARK    2  A    between atoms: C_7  and  N_8 
REMARK       I    between atoms: N_8  and  C_10 
REMARK    3  A    between atoms: C_10  and  C_12 
REMARK    4  A    between atoms: C_14  and  O_15 
REMARK    5  A    between atoms: C_22  and  C_23 
REMARK    6  A    between atoms: C_23  and  C_24 
ROOT
HETATM    1  C   UNL     1       4.529  10.602  24.818  0.00  0.00     0.066 C 
HETATM    2  C   UNL     1       5.276  11.655  25.389  0.00  0.00     0.035 C 
HETATM    3  C   UNL     1       5.247   9.501  24.307  0.00  0.00     0.083 C 
HETATM    4  C   UNL     1       6.649   9.478  24.253  0.00  0.00     0.069 C 
HETATM    5  C   UNL     1       7.320  10.636  24.658  0.00  0.00     0.065 A 
HETATM    6  C   UNL     1       6.672  11.739  25.195  0.00  0.00     0.020 A 
HETATM    7  N   UNL     1       8.646  10.966  24.662  0.00  0.00    -0.277 N 
HETATM    8  H   UNL     1       9.427  10.381  24.387  0.00  0.00     0.189 HD
HETATM    9  N   UNL     1       8.900  12.227  25.050  0.00  0.00    -0.178 NA
HETATM   10  C   UNL     1       7.693  12.734  25.360  0.00  0.00     0.071 A 
ENDROOT
BRANCH   1  11
HETATM   11  C   UNL     1       3.009  10.600  24.712  0.00  0.00     0.260 C 
HETATM   12  N   UNL     1       2.304  11.566  23.925  0.00  0.00    -0.318 N 
HETATM   13  C   UNL     1       3.026  12.629  23.221  0.00  0.00     0.159 C 
HETATM   14  O   UNL     1       2.468   9.651  25.284  0.00  0.00    -0.267 OA
BRANCH  12  15
HETATM   15  C   UNL     1       0.843  11.647  23.883  0.00  0.00     0.037 A 
HETATM   16  C   UNL     1       0.047  10.660  24.509  0.00  0.00     0.032 A 
HETATM   17  C   UNL     1      -1.343  10.593  24.353  0.00  0.00     0.039 A 
HETATM   18  C   UNL     1      -1.984  11.551  23.596  0.00  0.00     0.065 A 
HETATM   19  C   UNL     1      -1.260  12.599  23.050  0.00  0.00     0.039 A 
HETATM   20  C   UNL     1       0.140  12.647  23.195  0.00  0.00     0.032 A 
BRANCH  18  21
HETATM   21  O   UNL     1      -3.324  11.487  23.367  0.00  0.00    -0.361 OA
HETATM   22  H   UNL     1      -3.768  11.268  24.205  0.00  0.00     0.217 HD
ENDBRANCH  18  21
ENDBRANCH  12  15
ENDBRANCH   1  11
BRANCH   3  23
HETATM   23  O   UNL     1       4.642   8.364  23.825  0.00  0.00    -0.360 OA
HETATM   24  H   UNL     1       4.239   8.583  22.954  0.00  0.00     0.217 HD
ENDBRANCH   3  23
BRANCH  10  25
HETATM   25  C   UNL     1       7.597  14.183  25.787  0.00  0.00     0.100 C 
BRANCH  25  26
HETATM   26  C   UNL     1       6.321  14.841  25.269  0.00  0.00    -0.052 A 
HETATM   27  C   UNL     1       6.172  15.294  23.951  0.00  0.00     0.007 A 
HETATM   28  C   UNL     1       4.979  15.877  23.516  0.00  0.00     0.001 A 
HETATM   29  C   UNL     1       3.941  16.113  24.409  0.00  0.00     0.007 A 
HETATM   30  C   UNL     1       4.099  15.810  25.762  0.00  0.00    -0.061 A 
HETATM   31  C   UNL     1       5.270  15.136  26.175  0.00  0.00     0.014 A 
HETATM   32  C   UNL     1       3.025  16.226  26.728  0.00  0.00     0.048 C 
ENDBRANCH  25  26
ENDBRANCH  10  25
TORSDOF 6
ENDMDL
MODEL 3
REMARK VINA RESULT:    -8.322      2.997      3.833
REMARK INTER + INTRA:         -11.991
REMARK INTER:                 -10.661
REMARK INTRA:                  -1.330
REMARK UNBOUND:                -1.236
REMARK  6 active torsions:
REMARK  status: ('A' for Active; 'I' for Inactive)
REMARK    1  A    between atoms: C_3  and  O_4 
REMARK    2  A    between atoms: C_7  and  N_8 
REMARK       I    between atoms: N_8  and  C_10 
REMARK    3  A    between atoms: C_10  and  C_12 
REMARK    4  A    between atoms: C_14  and  O_15 
REMARK    5  A    between atoms: C_22  and  C_23 
REMARK    6  A    between atoms: C_23  and  C_24 
ROOT
HETATM    1  C   UNL     1       7.080   9.871  24.025  0.00  0.00     0.066 C 
HETATM    2  C   UNL     1       7.376  11.028  24.778  0.00  0.00     0.035 C 
HETATM    3  C   UNL     1       8.024   9.467  23.060  0.00  0.00     0.083 C 
HETATM    4  C   UNL     1       9.165  10.228  22.760  0.00  0.00     0.069 C 
HETATM    5  C   UNL     1       9.296  11.460  23.408  0.00  0.00     0.065 A 
HETATM    6  C   UNL     1       8.415  11.899  24.387  0.00  0.00     0.020 A 
HETATM    7  N   UNL     1      10.225  12.455  23.294  0.00  0.00    -0.277 N 
HETATM    8  H   UNL     1      11.053  12.460  22.708  0.00  0.00     0.189 HD
HETATM    9  N   UNL     1       9.960  13.545  24.032  0.00  0.00    -0.178 NA
HETATM   10  C   UNL     1       8.833  13.237  24.697  0.00  0.00     0.071 A 
ENDROOT
BRANCH   1  11
HETATM   11  C   UNL     1       5.802   9.057  24.188  0.00  0.00     0.260 C 
HETATM   12  N   UNL     1       4.564   9.464  23.596  0.00  0.00    -0.318 N 
HETATM   13  C   UNL     1       4.472  10.716  22.840  0.00  0.00     0.159 C 
HETATM   14  O   UNL     1       5.959   7.992  24.789  0.00  0.00    -0.267 OA
BRANCH  12  15
HETATM   15  C   UNL     1       3.303   8.754  23.817  0.00  0.00     0.037 A 
HETATM   16  C   UNL     1       2.968   7.618  23.044  0.00  0.00     0.032 A 
HETATM   17  C   UNL     1       1.709   7.009  23.093  0.00  0.00     0.039 A 
HETATM   18  C   UNL     1       0.756   7.500  23.962  0.00  0.00     0.065 A 
HETATM   19  C   UNL     1       1.071   8.544  24.816  0.00  0.00     0.039 A 
HETATM   20  C   UNL     1       2.335   9.163  24.745  0.00  0.00     0.032 A 
BRANCH  18  21
HETATM   21  O   UNL     1      -0.501   6.978  23.995  0.00  0.00    -0.361 OA
HETATM   22  H   UNL     1      -1.116   7.638  23.634  0.00  0.00     0.217 HD
ENDBRANCH  18  21
ENDBRANCH  12  15
ENDBRANCH   1  11
BRANCH   3  23
HETATM   23  O   UNL     1       7.913   8.303  22.336  0.00  0.00    -0.360 OA
HETATM   24  H   UNL     1       7.411   8.505  21.514  0.00  0.00     0.217 HD
ENDBRANCH   3  23
BRANCH  10  25
HETATM   25  C   UNL     1       8.204  14.282  25.594  0.00  0.00     0.100 C 
BRANCH  25  26
HETATM   26  C   UNL     1       6.897  14.814  25.012  0.00  0.00    -0.052 A 
HETATM   27  C   UNL     1       6.750  15.184  23.669  0.00  0.00     0.007 A 
HETATM   28  C   UNL     1       5.530  15.652  23.176  0.00  0.00     0.001 A 
HETATM   29  C   UNL     1       4.453  15.856  24.031  0.00  0.00     0.007 A 
HETATM   30  C   UNL     1       4.598  15.638  25.402  0.00  0.00    -0.061 A 
HETATM   31  C   UNL     1       5.804  15.077  25.877  0.00  0.00     0.014 A 
HETATM   32  C   UNL     1       3.470  16.022  26.320  0.00  0.00     0.048 C 
ENDBRANCH  25  26
ENDBRANCH  10  25
TORSDOF 6
ENDMDL
MODEL 4
REMARK VINA RESULT:    -8.314      4.721      7.131
REMARK INTER + INTRA:         -11.980
REMARK INTER:                 -10.875
REMARK INTRA:                  -1.105
REMARK UNBOUND:                -1.236
REMARK  6 active torsions:
REMARK  status: ('A' for Active; 'I' for Inactive)
REMARK    1  A    between atoms: C_3  and  O_4 
REMARK    2  A    between atoms: C_7  and  N_8 
REMARK       I    between atoms: N_8  and  C_10 
REMARK    3  A    between atoms: C_10  and  C_12 
REMARK    4  A    between atoms: C_14  and  O_15 
REMARK    5  A    between atoms: C_22  and  C_23 
REMARK    6  A    between atoms: C_23  and  C_24 
ROOT
HETATM    1  C   UNL     1       6.649  14.346  24.842  0.00  0.00     0.066 C 
HETATM    2  C   UNL     1       7.320  15.059  23.825  0.00  0.00     0.035 C 
HETATM    3  C   UNL     1       7.340  14.142  26.054  0.00  0.00     0.083 C 
HETATM    4  C   UNL     1       8.679  14.522  26.229  0.00  0.00     0.069 C 
HETATM    5  C   UNL     1       9.341  15.049  25.116  0.00  0.00     0.065 A 
HETATM    6  C   UNL     1       8.709  15.299  23.906  0.00  0.00     0.020 A 
HETATM    7  N   UNL     1      10.636  15.442  24.927  0.00  0.00    -0.277 N 
HETATM    8  H   UNL     1      11.382  15.454  25.614  0.00  0.00     0.189 HD
HETATM    9  N   UNL     1      10.922  15.819  23.670  0.00  0.00    -0.178 NA
HETATM   10  C   UNL     1       9.753  15.715  23.013  0.00  0.00     0.071 A 
ENDROOT
BRANCH   1  11
HETATM   11  C   UNL     1       5.244  13.777  24.694  0.00  0.00     0.260 C 
HETATM   12  N   UNL     1       4.086  14.620  24.650  0.00  0.00    -0.318 N 
HETATM   13  C   UNL     1       4.213  16.072  24.790  0.00  0.00     0.159 C 
HETATM   14  O   UNL     1       5.211  12.556  24.529  0.00  0.00    -0.267 OA
BRANCH  12  15
HETATM   15  C   UNL     1       2.720  14.096  24.606  0.00  0.00     0.037 A 
HETATM   16  C   UNL     1       2.164  13.628  23.394  0.00  0.00     0.032 A 
HETATM   17  C   UNL     1       0.814  13.281  23.261  0.00  0.00     0.039 A 
HETATM   18  C   UNL     1      -0.012  13.351  24.363  0.00  0.00     0.065 A 
HETATM   19  C   UNL     1       0.510  13.702  25.597  0.00  0.00     0.039 A 
HETATM   20  C   UNL     1       1.864  14.069  25.718  0.00  0.00     0.032 A 
BRANCH  18  21
HETATM   21  O   UNL     1      -1.344  13.084  24.262  0.00  0.00    -0.361 OA
HETATM   22  H   UNL     1      -1.453  12.136  24.076  0.00  0.00     0.217 HD
ENDBRANCH  18  21
ENDBRANCH  12  15
ENDBRANCH   1  11
BRANCH   3  23
HETATM   23  O   UNL     1       6.766  13.561  27.161  0.00  0.00    -0.360 OA
HETATM   24  H   UNL     1       5.815  13.404  26.960  0.00  0.00     0.217 HD
ENDBRANCH   3  23
BRANCH  10  25
HETATM   25  C   UNL     1       9.720  16.010  21.528  0.00  0.00     0.100 C 
BRANCH  25  26
HETATM   26  C   UNL     1       9.699  14.729  20.698  0.00  0.00    -0.052 A 
HETATM   27  C   UNL     1       8.589  14.321  19.945  0.00  0.00     0.007 A 
HETATM   28  C   UNL     1       8.620  13.148  19.187  0.00  0.00     0.001 A 
HETATM   29  C   UNL     1       9.721  12.302  19.239  0.00  0.00     0.007 A 
HETATM   30  C   UNL     1      10.790  12.595  20.086  0.00  0.00    -0.061 A 
HETATM   31  C   UNL     1      10.791  13.828  20.776  0.00  0.00     0.014 A 
HETATM   32  C   UNL     1      11.890  11.582  20.243  0.00  0.00     0.048 C 
ENDBRANCH  25  26
ENDBRANCH  10  25
TORSDOF 6
ENDMDL
MODEL 5
REMARK VINA RESULT:    -8.302      1.682      2.204
REMARK INTER + INTRA:         -11.965
REMARK INTER:                 -10.886
REMARK INTRA:                  -1.079
REMARK UNBOUND:                -1.236
REMARK  6 active torsions:
REMARK  status: ('A' for Active; 'I' for Inactive)
REMARK    1  A    between atoms: C_3  and  O_4 
REMARK    2  A    between atoms: C_7  and  N_8 
REMARK       I    between atoms: N_8  and  C_10 
REMARK    3  A    between atoms: C_10  and  C_12 
REMARK    4  A    between atoms: C_14  and  O_15 
REMARK    5  A    between atoms: C_22  and  C_23 
REMARK    6  A    between atoms: C_23  and  C_24 
ROOT
HETATM    1  C   UNL     1       6.568  11.338  21.604  0.00  0.00     0.066 C 
HETATM    2  C   UNL     1       6.857  12.051  22.788  0.00  0.00     0.035 C 
HETATM    3  C   UNL     1       7.413  11.554  20.496  0.00  0.00     0.083 C 
HETATM    4  C   UNL     1       8.435  12.514  20.506  0.00  0.00     0.069 C 
HETATM    5  C   UNL     1       8.541  13.318  21.645  0.00  0.00     0.065 A 
HETATM    6  C   UNL     1       7.759  13.137  22.777  0.00  0.00     0.020 A 
HETATM    7  N   UNL     1       9.359  14.371  21.944  0.00  0.00    -0.277 N 
HETATM    8  H   UNL     1      10.102  14.756  21.370  0.00  0.00     0.189 HD
HETATM    9  N   UNL     1       9.098  14.956  23.125  0.00  0.00    -0.178 NA
HETATM   10  C   UNL     1       8.095  14.227  23.647  0.00  0.00     0.071 A 
ENDROOT
BRANCH   1  11
HETATM   11  C   UNL     1       5.397  10.375  21.458  0.00  0.00     0.260 C 
HETATM   12  N   UNL     1       5.451   9.035  21.962  0.00  0.00    -0.318 N 
HETATM   13  C   UNL     1       6.664   8.526  22.605  0.00  0.00     0.159 C 
HETATM   14  O   UNL     1       4.391  10.881  20.956  0.00  0.00    -0.267 OA
BRANCH  12  15
HETATM   15  C   UNL     1       4.379   8.060  21.750  0.00  0.00     0.037 A 
HETATM   16  C   UNL     1       4.224   7.419  20.500  0.00  0.00     0.032 A 
HETATM   17  C   UNL     1       3.120   6.615  20.189  0.00  0.00     0.039 A 
HETATM   18  C   UNL     1       2.156   6.394  21.150  0.00  0.00     0.065 A 
HETATM   19  C   UNL     1       2.317   6.914  22.424  0.00  0.00     0.039 A 
HETATM   20  C   UNL     1       3.420   7.738  22.721  0.00  0.00     0.032 A 
BRANCH  18  21
HETATM   21  O   UNL     1       1.036   5.672  20.870  0.00  0.00    -0.361 OA
HETATM   22  H   UNL     1       1.299   4.749  20.711  0.00  0.00     0.217 HD
ENDBRANCH  18  21
ENDBRANCH  12  15
ENDBRANCH   1  11
BRANCH   3  23
HETATM   23  O   UNL     1       7.310  10.846  19.321  0.00  0.00    -0.360 OA
HETATM   24  H   UNL     1       7.427   9.891  19.532  0.00  0.00     0.217 HD
ENDBRANCH   3  23
BRANCH  10  25
HETATM   25  C   UNL     1       7.499  14.649  24.973  0.00  0.00     0.100 C 
BRANCH  25  26
HETATM   26  C   UNL     1       6.071  15.165  24.812  0.00  0.00    -0.052 A 
HETATM   27  C   UNL     1       5.560  15.642  23.598  0.00  0.00     0.007 A 
HETATM   28  C   UNL     1       4.241  16.090  23.493  0.00  0.00     0.001 A 
HETATM   29  C   UNL     1       3.429  16.166  24.618  0.00  0.00     0.007 A 
HETATM   30  C   UNL     1       3.941  15.837  25.874  0.00  0.00    -0.061 A 
HETATM   31  C   UNL     1       5.244  15.297  25.956  0.00  0.00     0.014 A 
HETATM   32  C   UNL     1       3.092  16.085  27.090  0.00  0.00     0.048 C 
ENDBRANCH  25  26
ENDBRANCH  10  25
TORSDOF 6
ENDMDL
MODEL 6
REMARK VINA RESULT:    -8.245      4.361      6.586
REMARK INTER + INTRA:         -11.891
REMARK INTER:                 -10.991
REMARK INTRA:                  -0.900
REMARK UNBOUND:                -1.236
REMARK  6 active torsions:
REMARK  status: ('A' for Active; 'I' for Inactive)
REMARK    1  A    between atoms: C_3  and  O_4 
REMARK    2  A    between atoms: C_7  and  N_8 
REMARK       I    between atoms: N_8  and  C_10 
REMARK    3  A    between atoms: C_10  and  C_12 
REMARK    4  A    between atoms: C_14  and  O_15 
REMARK    5  A    between atoms: C_22  and  C_23 
REMARK    6  A    between atoms: C_23  and  C_24 
ROOT
HETATM    1  C   UNL     1       4.804  13.530  24.157  0.00  0.00     0.066 C 
HETATM    2  C   UNL     1       5.619  14.369  23.367  0.00  0.00     0.035 C 
HETATM    3  C   UNL     1       5.259  13.218  25.454  0.00  0.00     0.083 C 
HETATM    4  C   UNL     1       6.519  13.618  25.924  0.00  0.00     0.069 C 
HETATM    5  C   UNL     1       7.354  14.282  25.021  0.00  0.00     0.065 A 
HETATM    6  C   UNL     1       6.953  14.641  23.741  0.00  0.00     0.020 A 
HETATM    7  N   UNL     1       8.639  14.732  25.129  0.00  0.00    -0.277 N 
HETATM    8  H   UNL     1       9.239  14.692  25.946  0.00  0.00     0.189 HD
HETATM    9  N   UNL     1       9.140  15.251  23.996  0.00  0.00    -0.178 NA
HETATM   10  C   UNL     1       8.125  15.182  23.116  0.00  0.00     0.071 A 
ENDROOT
BRANCH   1  11
HETATM   11  C   UNL     1       3.483  12.938  23.681  0.00  0.00     0.260 C 
HETATM   12  N   UNL     1       2.224  13.542  23.998  0.00  0.00    -0.318 N 
HETATM   13  C   UNL     1       2.160  14.741  24.837  0.00  0.00     0.159 C 
HETATM   14  O   UNL     1       3.609  11.962  22.938  0.00  0.00    -0.267 OA
BRANCH  12  15
HETATM   15  C   UNL     1       0.938  12.942  23.637  0.00  0.00     0.037 A 
HETATM   16  C   UNL     1       0.320  13.247  22.403  0.00  0.00     0.032 A 
HETATM   17  C   UNL     1      -0.982  12.841  22.084  0.00  0.00     0.039 A 
HETATM   18  C   UNL     1      -1.688  12.071  22.985  0.00  0.00     0.065 A 
HETATM   19  C   UNL     1      -1.086  11.658  24.162  0.00  0.00     0.039 A 
HETATM   20  C   UNL     1       0.216  12.088  24.484  0.00  0.00     0.032 A 
BRANCH  18  21
HETATM   21  O   UNL     1      -2.978  11.710  22.742  0.00  0.00    -0.361 OA
HETATM   22  H   UNL     1      -2.975  10.973  22.107  0.00  0.00     0.217 HD
ENDBRANCH  18  21
ENDBRANCH  12  15
ENDBRANCH   1  11
BRANCH   3  23
HETATM   23  O   UNL     1       4.514  12.504  26.364  0.00  0.00    -0.360 OA
HETATM   24  H   UNL     1       3.732  13.050  26.609  0.00  0.00     0.217 HD
ENDBRANCH   3  23
BRANCH  10  25
HETATM   25  C   UNL     1       8.362  15.635  21.691  0.00  0.00     0.100 C 
BRANCH  25  26
HETATM   26  C   UNL     1       8.889  14.499  20.818  0.00  0.00    -0.052 A 
HETATM   27  C   UNL     1       8.143  13.915  19.785  0.00  0.00     0.007 A 
HETATM   28  C   UNL     1       8.672  12.887  19.001  0.00  0.00     0.001 A 
HETATM   29  C   UNL     1       9.920  12.348  19.289  0.00  0.00     0.007 A 
HETATM   30  C   UNL     1      10.637  12.800  20.398  0.00  0.00    -0.061 A 
HETATM   31  C   UNL     1      10.138  13.901  21.128  0.00  0.00     0.014 A 
HETATM   32  C   UNL     1      11.905  12.087  20.780  0.00  0.00     0.048 C 
ENDBRANCH  25  26
ENDBRANCH  10  25
TORSDOF 6
ENDMDL
MODEL 7
REMARK VINA RESULT:    -8.171      4.399      6.712
REMARK INTER + INTRA:         -11.796
REMARK INTER:                 -10.968
REMARK INTRA:                  -0.828
REMARK UNBOUND:                -1.236
REMARK  6 active torsions:
REMARK  status: ('A' for Active; 'I' for Inactive)
REMARK    1  A    between atoms: C_3  and  O_4 
REMARK    2  A    between atoms: C_7  and  N_8 
REMARK       I    between atoms: N_8  and  C_10 
REMARK    3  A    between atoms: C_10  and  C_12 
REMARK    4  A    between atoms: C_14  and  O_15 
REMARK    5  A    between atoms: C_22  and  C_23 
REMARK    6  A    between atoms: C_23  and  C_24 
ROOT
HETATM    1  C   UNL     1       3.966  14.639  24.120  0.00  0.00     0.066 C 
HETATM    2  C   UNL     1       4.904  14.800  23.078  0.00  0.00     0.035 C 
HETATM    3  C   UNL     1       4.417  14.859  25.438  0.00  0.00     0.083 C 
HETATM    4  C   UNL     1       5.763  15.118  25.738  0.00  0.00     0.069 C 
HETATM    5  C   UNL     1       6.671  15.072  24.676  0.00  0.00     0.065 A 
HETATM    6  C   UNL     1       6.285  14.888  23.355  0.00  0.00     0.020 A 
HETATM    7  N   UNL     1       8.030  15.202  24.634  0.00  0.00    -0.277 N 
HETATM    8  H   UNL     1       8.654  15.400  25.408  0.00  0.00     0.189 HD
HETATM    9  N   UNL     1       8.566  15.007  23.417  0.00  0.00    -0.178 NA
HETATM   10  C   UNL     1       7.510  14.785  22.615  0.00  0.00     0.071 A 
ENDROOT
BRANCH   1  11
HETATM   11  C   UNL     1       2.515  14.228  23.900  0.00  0.00     0.260 C 
HETATM   12  N   UNL     1       2.126  12.855  23.779  0.00  0.00    -0.318 N 
HETATM   13  C   UNL     1       3.128  11.788  23.820  0.00  0.00     0.159 C 
HETATM   14  O   UNL     1       1.718  15.168  23.927  0.00  0.00    -0.267 OA
BRANCH  12  15
HETATM   15  C   UNL     1       0.757  12.439  23.470  0.00  0.00     0.037 A 
HETATM   16  C   UNL     1       0.059  13.003  22.378  0.00  0.00     0.032 A 
HETATM   17  C   UNL     1      -1.302  12.772  22.145  0.00  0.00     0.039 A 
HETATM   18  C   UNL     1      -1.995  11.922  22.981  0.00  0.00     0.065 A 
HETATM   19  C   UNL     1      -1.330  11.262  24.002  0.00  0.00     0.039 A 
HETATM   20  C   UNL     1       0.035  11.516  24.242  0.00  0.00     0.032 A 
BRANCH  18  21
HETATM   21  O   UNL     1      -3.333  11.720  22.827  0.00  0.00    -0.361 OA
HETATM   22  H   UNL     1      -3.798  12.198  23.535  0.00  0.00     0.217 HD
ENDBRANCH  18  21
ENDBRANCH  12  15
ENDBRANCH   1  11
BRANCH   3  23
HETATM   23  O   UNL     1       3.584  14.842  26.533  0.00  0.00    -0.360 OA
HETATM   24  H   UNL     1       2.916  14.133  26.393  0.00  0.00     0.217 HD
ENDBRANCH   3  23
BRANCH  10  25
HETATM   25  C   UNL     1       7.756  14.462  21.156  0.00  0.00     0.100 C 
BRANCH  25  26
HETATM   26  C   UNL     1       8.608  13.207  20.992  0.00  0.00    -0.052 A 
HETATM   27  C   UNL     1       9.583  13.066  19.995  0.00  0.00     0.007 A 
HETATM   28  C   UNL     1      10.351  11.904  19.892  0.00  0.00     0.001 A 
HETATM   29  C   UNL     1      10.099  10.814  20.717  0.00  0.00     0.007 A 
HETATM   30  C   UNL     1       9.043  10.856  21.628  0.00  0.00    -0.061 A 
HETATM   31  C   UNL     1       8.333  12.067  21.790  0.00  0.00     0.014 A 
HETATM   32  C   UNL     1       8.693   9.608  22.390  0.00  0.00     0.048 C 
ENDBRANCH  25  26
ENDBRANCH  10  25
TORSDOF 6
ENDMDL
MODEL 8
REMARK VINA RESULT:    -8.072      3.840      6.640
REMARK INTER + INTRA:         -11.668
REMARK INTER:                 -10.385
REMARK INTRA:                  -1.282
REMARK UNBOUND:                -1.236
REMARK  6 active torsions:
REMARK  status: ('A' for Active; 'I' for Inactive)
REMARK    1  A    between atoms: C_3  and  O_4 
REMARK    2  A    between atoms: C_7  and  N_8 
REMARK       I    between atoms: N_8  and  C_10 
REMARK    3  A    between atoms: C_10  and  C_12 
REMARK    4  A    between atoms: C_14  and  O_15 
REMARK    5  A    between atoms: C_22  and  C_23 
REMARK    6  A    between atoms: C_23  and  C_24 
ROOT
HETATM    1  C   UNL     1       3.765  14.455  24.099  0.00  0.00     0.066 C 
HETATM    2  C   UNL     1       4.701  14.157  23.085  0.00  0.00     0.035 C 
HETATM    3  C   UNL     1       4.255  15.052  25.278  0.00  0.00     0.083 C 
HETATM    4  C   UNL     1       5.625  15.249  25.507  0.00  0.00     0.069 C 
HETATM    5  C   UNL     1       6.508  14.754  24.543  0.00  0.00     0.065 A 
HETATM    6  C   UNL     1       6.087  14.182  23.350  0.00  0.00     0.020 A 
HETATM    7  N   UNL     1       7.874  14.714  24.492  0.00  0.00    -0.277 N 
HETATM    8  H   UNL     1       8.526  15.091  25.171  0.00  0.00     0.189 HD
HETATM    9  N   UNL     1       8.368  14.067  23.424  0.00  0.00    -0.178 NA
HETATM   10  C   UNL     1       7.283  13.706  22.716  0.00  0.00     0.071 A 
ENDROOT
BRANCH   1  11
HETATM   11  C   UNL     1       2.275  14.154  23.994  0.00  0.00     0.260 C 
HETATM   12  N   UNL     1       1.745  12.851  24.262  0.00  0.00    -0.318 N 
HETATM   13  C   UNL     1       2.633  11.739  24.608  0.00  0.00     0.159 C 
HETATM   14  O   UNL     1       1.579  15.142  23.750  0.00  0.00    -0.267 OA
BRANCH  12  15
HETATM   15  C   UNL     1       0.333  12.511  24.074  0.00  0.00     0.037 A 
HETATM   16  C   UNL     1      -0.415  11.925  25.121  0.00  0.00     0.032 A 
HETATM   17  C   UNL     1      -1.709  11.424  24.943  0.00  0.00     0.039 A 
HETATM   18  C   UNL     1      -2.313  11.539  23.708  0.00  0.00     0.065 A 
HETATM   19  C   UNL     1      -1.661  12.199  22.679  0.00  0.00     0.039 A 
HETATM   20  C   UNL     1      -0.351  12.683  22.861  0.00  0.00     0.032 A 
BRANCH  18  21
HETATM   21  O   UNL     1      -3.545  11.007  23.475  0.00  0.00    -0.361 OA
HETATM   22  H   UNL     1      -3.551  10.631  22.578  0.00  0.00     0.217 HD
ENDBRANCH  18  21
ENDBRANCH  12  15
ENDBRANCH   1  11
BRANCH   3  23
HETATM   23  O   UNL     1       3.441  15.493  26.296  0.00  0.00    -0.360 OA
HETATM   24  H   UNL     1       4.008  15.671  27.080  0.00  0.00     0.217 HD
ENDBRANCH   3  23
BRANCH  10  25
HETATM   25  C   UNL     1       7.471  12.890  21.455  0.00  0.00     0.100 C 
BRANCH  25  26
HETATM   26  C   UNL     1       6.966  11.460  21.627  0.00  0.00    -0.052 A 
HETATM   27  C   UNL     1       5.765  10.998  21.073  0.00  0.00     0.007 A 
HETATM   28  C   UNL     1       5.350   9.675  21.244  0.00  0.00     0.001 A 
HETATM   29  C   UNL     1       6.072   8.806  22.053  0.00  0.00     0.007 A 
HETATM   30  C   UNL     1       7.197   9.263  22.741  0.00  0.00    -0.061 A 
HETATM   31  C   UNL     1       7.662  10.573  22.489  0.00  0.00     0.014 A 
HETATM   32  C   UNL     1       7.861   8.348  23.733  0.00  0.00     0.048 C 
ENDBRANCH  25  26
ENDBRANCH  10  25
TORSDOF 6
ENDMDL
MODEL 9
REMARK VINA RESULT:    -7.923      1.960      2.679
REMARK INTER + INTRA:         -11.475
REMARK INTER:                 -10.239
REMARK INTRA:                  -1.236
REMARK UNBOUND:                -1.236
REMARK  6 active torsions:
REMARK  status: ('A' for Active; 'I' for Inactive)
REMARK    1  A    between atoms: C_3  and  O_4 
REMARK    2  A    between atoms: C_7  and  N_8 
REMARK       I    between atoms: N_8  and  C_10 
REMARK    3  A    between atoms: C_10  and  C_12 
REMARK    4  A    between atoms: C_14  and  O_15 
REMARK    5  A    between atoms: C_22  and  C_23 
REMARK    6  A    between atoms: C_23  and  C_24 
ROOT
HETATM    1  C   UNL     1       6.713  11.174  23.819  0.00  0.00     0.066 C 
HETATM    2  C   UNL     1       5.899  12.293  24.097  0.00  0.00     0.035 C 
HETATM    3  C   UNL     1       7.773  10.907  24.710  0.00  0.00     0.083 C 
HETATM    4  C   UNL     1       8.096  11.765  25.771  0.00  0.00     0.069 C 
HETATM    5  C   UNL     1       7.369  12.955  25.872  0.00  0.00     0.065 A 
HETATM    6  C   UNL     1       6.298  13.261  25.043  0.00  0.00     0.020 A 
HETATM    7  N   UNL     1       7.476  14.019  26.722  0.00  0.00    -0.277 N 
HETATM    8  H   UNL     1       8.118  14.123  27.500  0.00  0.00     0.189 HD
HETATM    9  N   UNL     1       6.640  15.033  26.445  0.00  0.00    -0.178 NA
HETATM   10  C   UNL     1       5.920  14.600  25.395  0.00  0.00     0.071 A 
ENDROOT
BRANCH   1  11
HETATM   11  C   UNL     1       6.520  10.262  22.614  0.00  0.00     0.260 C 
HETATM   12  N   UNL     1       5.370   9.418  22.479  0.00  0.00    -0.318 N 
HETATM   13  C   UNL     1       4.349   9.372  23.528  0.00  0.00     0.159 C 
HETATM   14  O   UNL     1       7.386  10.387  21.746  0.00  0.00    -0.267 OA
BRANCH  12  15
HETATM   15  C   UNL     1       5.208   8.463  21.382  0.00  0.00     0.037 A 
HETATM   16  C   UNL     1       5.510   7.094  21.565  0.00  0.00     0.032 A 
HETATM   17  C   UNL     1       5.539   6.174  20.510  0.00  0.00     0.039 A 
HETATM   18  C   UNL     1       5.217   6.597  19.237  0.00  0.00     0.065 A 
HETATM   19  C   UNL     1       4.811   7.904  19.025  0.00  0.00     0.039 A 
HETATM   20  C   UNL     1       4.804   8.828  20.088  0.00  0.00     0.032 A 
BRANCH  18  21
HETATM   21  O   UNL     1       5.295   5.750  18.174  0.00  0.00    -0.361 OA
HETATM   22  H   UNL     1       4.617   5.061  18.281  0.00  0.00     0.217 HD
ENDBRANCH  18  21
ENDBRANCH  12  15
ENDBRANCH   1  11
BRANCH   3  23
HETATM   23  O   UNL     1       8.572   9.791  24.619  0.00  0.00    -0.360 OA
HETATM   24  H   UNL     1       7.995   9.024  24.400  0.00  0.00     0.217 HD
ENDBRANCH   3  23
BRANCH  10  25
HETATM   25  C   UNL     1       4.903  15.532  24.772  0.00  0.00     0.100 C 
BRANCH  25  26
HETATM   26  C   UNL     1       3.478  15.014  24.949  0.00  0.00    -0.052 A 
HETATM   27  C   UNL     1       2.862  14.874  26.199  0.00  0.00     0.007 A 
HETATM   28  C   UNL     1       1.549  14.410  26.313  0.00  0.00     0.001 A 
HETATM   29  C   UNL     1       0.852  13.980  25.190  0.00  0.00     0.007 A 
HETATM   30  C   UNL     1       1.477  13.966  23.942  0.00  0.00    -0.061 A 
HETATM   31  C   UNL     1       2.769  14.524  23.822  0.00  0.00     0.014 A 
HETATM   32  C   UNL     1       0.755  13.344  22.778  0.00  0.00     0.048 C 
ENDBRANCH  25  26
ENDBRANCH  10  25
TORSDOF 6
ENDMDL
