MODEL 1
REMARK VINA RESULT:    -8.570      0.000      0.000
REMARK INTER + INTRA:         -12.414
REMARK INTER:                 -11.806
REMARK INTRA:                  -0.608
REMARK UNBOUND:                -1.088
REMARK  6 active torsions:
REMARK  status: ('A' for Active; 'I' for Inactive)
REMARK    1  A    between atoms: C_6  and  C_7 
REMARK    2  A    between atoms: C_7  and  N_8 
REMARK       I    between atoms: N_8  and  C_10 
REMARK    3  A    between atoms: C_10  and  C_12 
REMARK    4  A    between atoms: C_14  and  O_15 
REMARK    5  A    between atoms: C_22  and  C_23 
REMARK    6  A    between atoms: C_23  and  C_24 
ROOT
HETATM    1  C   UNL     1       2.172   8.883  25.579  0.00  0.00     0.158 A 
HETATM    2  C   UNL     1       0.754   9.412  25.337  0.00  0.00     0.010 A 
HETATM    3  C   UNL     1       2.406   8.503  27.052  0.00  0.00     0.062 A 
HETATM    4  C   UNL     1       1.531   8.712  28.048  0.00  0.00     0.065 A 
HETATM    5  C   UNL     1       0.256   9.324  27.706  0.00  0.00     0.064 A 
HETATM    6  C   UNL     1      -0.098   9.645  26.340  0.00  0.00     0.016 A 
HETATM    7  N   UNL     1      -0.709   9.670  28.478  0.00  0.00    -0.277 N 
HETATM    8  H   UNL     1      -0.733   9.586  29.495  0.00  0.00     0.189 HD
HETATM    9  N   UNL     1      -1.846  10.258  27.779  0.00  0.00    -0.178 NA
HETATM   10  C   UNL     1      -1.440  10.223  26.527  0.00  0.00     0.071 A 
ENDROOT
BRANCH   1  11
HETATM   11  C   UNL     1       2.479   7.679  24.635  0.00  0.00     0.233 C 
HETATM   12  N   UNL     1       3.440   7.845  23.634  0.00  0.00    -0.351 N 
HETATM   13  C   UNL     1       4.014   9.134  23.261  0.00  0.00     0.153 C 
HETATM   14  O   UNL     1       1.887   6.610  24.802  0.00  0.00    -0.272 OA
BRANCH  12  15
HETATM   15  C   UNL     1       3.767   6.708  22.758  0.00  0.00     0.164 C 
BRANCH  15  16
HETATM   16  C   UNL     1       4.517   6.994  21.473  0.00  0.00    -0.040 A 
HETATM   17  C   UNL     1       5.920   6.918  21.423  0.00  0.00     0.009 A 
HETATM   18  C   UNL     1       6.631   7.450  20.338  0.00  0.00     0.001 A 
HETATM   19  C   UNL     1       5.952   8.046  19.278  0.00  0.00     0.000 A 
HETATM   20  C   UNL     1       4.559   8.067  19.279  0.00  0.00     0.001 A 
HETATM   21  C   UNL     1       3.847   7.537  20.364  0.00  0.00     0.009 A 
ENDBRANCH  15  16
ENDBRANCH  12  15
ENDBRANCH   1  11
BRANCH   3  22
HETATM   22  O   UNL     1       3.635   7.962  27.394  0.00  0.00    -0.364 OA
HETATM   23  H   UNL     1       4.283   8.666  27.587  0.00  0.00     0.217 HD
ENDBRANCH   3  22
BRANCH  10  24
HETATM   24  C   UNL     1      -2.263  10.808  25.399  0.00  0.00     0.100 C 
BRANCH  24  25
HETATM   25  C   UNL     1      -1.447  11.785  24.592  0.00  0.00    -0.052 A 
HETATM   26  C   UNL     1      -0.543  12.645  25.227  0.00  0.00     0.007 A 
HETATM   27  C   UNL     1       0.151  13.607  24.493  0.00  0.00     0.001 A 
HETATM   28  C   UNL     1      -0.052  13.723  23.119  0.00  0.00     0.007 A 
HETATM   29  C   UNL     1      -0.943  12.868  22.461  0.00  0.00    -0.061 A 
HETATM   30  C   UNL     1      -1.627  11.893  23.203  0.00  0.00     0.014 A 
HETATM   31  C   UNL     1      -1.162  12.986  20.980  0.00  0.00     0.048 C 
ENDBRANCH  24  25
ENDBRANCH  10  24
TORSDOF 6
ENDMDL
MODEL 2
REMARK VINA RESULT:    -8.494      0.461      1.291
REMARK INTER + INTRA:         -12.313
REMARK INTER:                 -11.790
REMARK INTRA:                  -0.523
REMARK UNBOUND:                -1.088
REMARK  6 active torsions:
REMARK  status: ('A' for Active; 'I' for Inactive)
REMARK    1  A    between atoms: C_6  and  C_7 
REMARK    2  A    between atoms: C_7  and  N_8 
REMARK       I    between atoms: N_8  and  C_10 
REMARK    3  A    between atoms: C_10  and  C_12 
REMARK    4  A    between atoms: C_14  and  O_15 
REMARK    5  A    between atoms: C_22  and  C_23 
REMARK    6  A    between atoms: C_23  and  C_24 
ROOT
HETATM    1  C   UNL     1       1.869   9.013  25.335  0.00  0.00     0.158 A 
HETATM    2  C   UNL     1       0.444   9.492  25.039  0.00  0.00     0.010 A 
HETATM    3  C   UNL     1       2.077   8.696  26.826  0.00  0.00     0.062 A 
HETATM    4  C   UNL     1       1.172   8.917  27.792  0.00  0.00     0.065 A 
HETATM    5  C   UNL     1      -0.111   9.478  27.398  0.00  0.00     0.064 A 
HETATM    6  C   UNL     1      -0.439   9.737  26.012  0.00  0.00     0.016 A 
HETATM    7  N   UNL     1      -1.104   9.825  28.132  0.00  0.00    -0.277 N 
HETATM    8  H   UNL     1      -1.151   9.779  29.151  0.00  0.00     0.189 HD
HETATM    9  N   UNL     1      -2.239  10.353  27.384  0.00  0.00    -0.178 NA
HETATM   10  C   UNL     1      -1.801  10.283  26.144  0.00  0.00     0.071 A 
ENDROOT
BRANCH   1  11
HETATM   11  C   UNL     1       2.233   7.784  24.445  0.00  0.00     0.233 C 
HETATM   12  N   UNL     1       3.341   7.879  23.598  0.00  0.00    -0.351 N 
HETATM   13  C   UNL     1       4.047   9.125  23.317  0.00  0.00     0.153 C 
HETATM   14  O   UNL     1       1.555   6.757  24.521  0.00  0.00    -0.272 OA
BRANCH  12  15
HETATM   15  C   UNL     1       3.719   6.715  22.779  0.00  0.00     0.164 C 
BRANCH  15  16
HETATM   16  C   UNL     1       4.463   6.971  21.483  0.00  0.00    -0.040 A 
HETATM   17  C   UNL     1       5.861   6.838  21.415  0.00  0.00     0.009 A 
HETATM   18  C   UNL     1       6.578   7.341  20.320  0.00  0.00     0.001 A 
HETATM   19  C   UNL     1       5.909   7.963  19.269  0.00  0.00     0.000 A 
HETATM   20  C   UNL     1       4.519   8.041  19.289  0.00  0.00     0.001 A 
HETATM   21  C   UNL     1       3.800   7.540  20.383  0.00  0.00     0.009 A 
ENDBRANCH  15  16
ENDBRANCH  12  15
ENDBRANCH   1  11
BRANCH   3  22
HETATM   22  O   UNL     1       3.312   8.203  27.218  0.00  0.00    -0.364 OA
HETATM   23  H   UNL     1       3.292   7.229  27.283  0.00  0.00     0.217 HD
ENDBRANCH   3  22
BRANCH  10  24
HETATM   24  C   UNL     1      -2.612  10.801  24.976  0.00  0.00     0.100 C 
BRANCH  24  25
HETATM   25  C   UNL     1      -1.814  11.794  24.169  0.00  0.00    -0.052 A 
HETATM   26  C   UNL     1      -2.036  11.928  22.794  0.00  0.00     0.007 A 
HETATM   27  C   UNL     1      -1.244  12.784  22.030  0.00  0.00     0.001 A 
HETATM   28  C   UNL     1      -0.219  13.514  22.630  0.00  0.00     0.007 A 
HETATM   29  C   UNL     1       0.015  13.405  24.005  0.00  0.00    -0.061 A 
HETATM   30  C   UNL     1      -0.796  12.552  24.770  0.00  0.00     0.014 A 
HETATM   31  C   UNL     1       1.115  14.192  24.658  0.00  0.00     0.048 C 
ENDBRANCH  24  25
ENDBRANCH  10  24
TORSDOF 6
ENDMDL
MODEL 3
REMARK VINA RESULT:    -8.407      1.491      2.083
REMARK INTER + INTRA:         -12.198
REMARK INTER:                 -11.156
REMARK INTRA:                  -1.043
REMARK UNBOUND:                -1.088
REMARK  6 active torsions:
REMARK  status: ('A' for Active; 'I' for Inactive)
REMARK    1  A    between atoms: C_6  and  C_7 
REMARK    2  A    between atoms: C_7  and  N_8 
REMARK       I    between atoms: N_8  and  C_10 
REMARK    3  A    between atoms: C_10  and  C_12 
REMARK    4  A    between atoms: C_14  and  O_15 
REMARK    5  A    between atoms: C_22  and  C_23 
REMARK    6  A    between atoms: C_23  and  C_24 
ROOT
HETATM    1  C   UNL     1       2.916   8.422  24.469  0.00  0.00     0.158 A 
HETATM    2  C   UNL     1       1.455   8.873  24.576  0.00  0.00     0.010 A 
HETATM    3  C   UNL     1       3.447   7.856  25.797  0.00  0.00     0.062 A 
HETATM    4  C   UNL     1       2.772   7.854  26.957  0.00  0.00     0.065 A 
HETATM    5  C   UNL     1       1.428   8.411  26.955  0.00  0.00     0.064 A 
HETATM    6  C   UNL     1       0.803   8.896  25.743  0.00  0.00     0.016 A 
HETATM    7  N   UNL     1       0.615   8.571  27.934  0.00  0.00    -0.277 N 
HETATM    8  H   UNL     1       0.792   8.341  28.913  0.00  0.00     0.189 HD
HETATM    9  N   UNL     1      -0.661   9.166  27.555  0.00  0.00    -0.178 NA
HETATM   10  C   UNL     1      -0.503   9.340  26.259  0.00  0.00     0.071 A 
ENDROOT
BRANCH   1  11
HETATM   11  C   UNL     1       3.091   7.391  23.311  0.00  0.00     0.233 C 
HETATM   12  N   UNL     1       3.885   7.747  22.216  0.00  0.00    -0.351 N 
HETATM   13  C   UNL     1       4.377   9.098  21.972  0.00  0.00     0.153 C 
HETATM   14  O   UNL     1       2.547   6.288  23.393  0.00  0.00    -0.272 OA
BRANCH  12  15
HETATM   15  C   UNL     1       4.089   6.772  21.132  0.00  0.00     0.164 C 
BRANCH  15  16
HETATM   16  C   UNL     1       3.256   6.923  19.876  0.00  0.00    -0.040 A 
HETATM   17  C   UNL     1       3.326   8.093  19.099  0.00  0.00     0.009 A 
HETATM   18  C   UNL     1       2.366   8.359  18.112  0.00  0.00     0.001 A 
HETATM   19  C   UNL     1       1.336   7.452  17.872  0.00  0.00     0.000 A 
HETATM   20  C   UNL     1       1.292   6.257  18.585  0.00  0.00     0.001 A 
HETATM   21  C   UNL     1       2.250   5.990  19.573  0.00  0.00     0.009 A 
ENDBRANCH  15  16
ENDBRANCH  12  15
ENDBRANCH   1  11
BRANCH   3  22
HETATM   22  O   UNL     1       4.743   7.364  25.821  0.00  0.00    -0.364 OA
HETATM   23  H   UNL     1       4.747   6.405  26.003  0.00  0.00     0.217 HD
ENDBRANCH   3  22
BRANCH  10  24
HETATM   24  C   UNL     1      -1.554  10.016  25.406  0.00  0.00     0.100 C 
BRANCH  24  25
HETATM   25  C   UNL     1      -0.991  11.243  24.735  0.00  0.00    -0.052 A 
HETATM   26  C   UNL     1      -0.222  12.158  25.464  0.00  0.00     0.007 A 
HETATM   27  C   UNL     1       0.230  13.334  24.867  0.00  0.00     0.001 A 
HETATM   28  C   UNL     1      -0.084  13.613  23.538  0.00  0.00     0.007 A 
HETATM   29  C   UNL     1      -0.842  12.709  22.786  0.00  0.00    -0.061 A 
HETATM   30  C   UNL     1      -1.282  11.520  23.389  0.00  0.00     0.014 A 
HETATM   31  C   UNL     1      -1.179  13.002  21.353  0.00  0.00     0.048 C 
ENDBRANCH  24  25
ENDBRANCH  10  24
TORSDOF 6
ENDMDL
MODEL 4
REMARK VINA RESULT:    -8.341      2.889      8.079
REMARK INTER + INTRA:         -12.112
REMARK INTER:                 -10.846
REMARK INTRA:                  -1.266
REMARK UNBOUND:                -1.088
REMARK  6 active torsions:
REMARK  status: ('A' for Active; 'I' for Inactive)
REMARK    1  A    between atoms: C_6  and  C_7 
REMARK    2  A    between atoms: C_7  and  N_8 
REMARK       I    between atoms: N_8  and  C_10 
REMARK    3  A    between atoms: C_10  and  C_12 
REMARK    4  A    between atoms: C_14  and  O_15 
REMARK    5  A    between atoms: C_22  and  C_23 
REMARK    6  A    between atoms: C_23  and  C_24 
ROOT
HETATM    1  C   UNL     1       3.902   6.948  22.911  0.00  0.00     0.158 A 
HETATM    2  C   UNL     1       3.466   7.617  21.603  0.00  0.00     0.010 A 
HETATM    3  C   UNL     1       5.371   6.492  22.869  0.00  0.00     0.062 A 
HETATM    4  C   UNL     1       6.164   6.554  21.788  0.00  0.00     0.065 A 
HETATM    5  C   UNL     1       5.599   7.113  20.569  0.00  0.00     0.064 A 
HETATM    6  C   UNL     1       4.254   7.645  20.524  0.00  0.00     0.016 A 
HETATM    7  N   UNL     1       6.131   7.226  19.408  0.00  0.00    -0.277 N 
HETATM    8  H   UNL     1       7.064   6.916  19.134  0.00  0.00     0.189 HD
HETATM    9  N   UNL     1       5.261   7.845  18.415  0.00  0.00    -0.178 NA
HETATM   10  C   UNL     1       4.170   8.072  19.116  0.00  0.00     0.071 A 
ENDROOT
BRANCH   1  11
HETATM   11  C   UNL     1       3.643   7.893  24.126  0.00  0.00     0.233 C 
HETATM   12  N   UNL     1       2.917   7.397  25.213  0.00  0.00    -0.351 N 
HETATM   13  C   UNL     1       2.187   6.133  25.197  0.00  0.00     0.153 C 
HETATM   14  O   UNL     1       4.097   9.039  24.111  0.00  0.00    -0.272 OA
BRANCH  12  15
HETATM   15  C   UNL     1       2.695   8.264  26.382  0.00  0.00     0.164 C 
BRANCH  15  16
HETATM   16  C   UNL     1       1.304   8.825  26.596  0.00  0.00    -0.040 A 
HETATM   17  C   UNL     1       0.661   9.566  25.590  0.00  0.00     0.009 A 
HETATM   18  C   UNL     1      -0.486  10.321  25.874  0.00  0.00     0.001 A 
HETATM   19  C   UNL     1      -1.020  10.329  27.160  0.00  0.00     0.000 A 
HETATM   20  C   UNL     1      -0.436   9.545  28.152  0.00  0.00     0.001 A 
HETATM   21  C   UNL     1       0.712   8.791  27.870  0.00  0.00     0.009 A 
ENDBRANCH  15  16
ENDBRANCH  12  15
ENDBRANCH   1  11
BRANCH   3  22
HETATM   22  O   UNL     1       5.904   5.916  24.012  0.00  0.00    -0.364 OA
HETATM   23  H   UNL     1       5.482   5.055  24.196  0.00  0.00     0.217 HD
ENDBRANCH   3  22
BRANCH  10  24
HETATM   24  C   UNL     1       2.918   8.648  18.490  0.00  0.00     0.100 C 
BRANCH  24  25
HETATM   25  C   UNL     1       2.115   7.570  17.809  0.00  0.00    -0.052 A 
HETATM   26  C   UNL     1       2.055   7.509  16.412  0.00  0.00     0.007 A 
HETATM   27  C   UNL     1       1.247   6.564  15.780  0.00  0.00     0.001 A 
HETATM   28  C   UNL     1       0.487   5.673  16.535  0.00  0.00     0.007 A 
HETATM   29  C   UNL     1       0.538   5.708  17.933  0.00  0.00    -0.061 A 
HETATM   30  C   UNL     1       1.365   6.651  18.562  0.00  0.00     0.014 A 
HETATM   31  C   UNL     1      -0.275   4.746  18.751  0.00  0.00     0.048 C 
ENDBRANCH  24  25
ENDBRANCH  10  24
TORSDOF 6
ENDMDL
MODEL 5
REMARK VINA RESULT:    -8.301      1.962      7.361
REMARK INTER + INTRA:         -12.059
REMARK INTER:                 -10.834
REMARK INTRA:                  -1.225
REMARK UNBOUND:                -1.088
REMARK  6 active torsions:
REMARK  status: ('A' for Active; 'I' for Inactive)
REMARK    1  A    between atoms: C_6  and  C_7 
REMARK    2  A    between atoms: C_7  and  N_8 
REMARK       I    between atoms: N_8  and  C_10 
REMARK    3  A    between atoms: C_10  and  C_12 
REMARK    4  A    between atoms: C_14  and  O_15 
REMARK    5  A    between atoms: C_22  and  C_23 
REMARK    6  A    between atoms: C_23  and  C_24 
ROOT
HETATM    1  C   UNL     1       2.380   7.358  24.196  0.00  0.00     0.158 A 
HETATM    2  C   UNL     1       3.360   7.695  23.067  0.00  0.00     0.010 A 
HETATM    3  C   UNL     1       2.990   6.389  25.224  0.00  0.00     0.062 A 
HETATM    4  C   UNL     1       4.191   5.801  25.107  0.00  0.00     0.065 A 
HETATM    5  C   UNL     1       4.986   6.119  23.931  0.00  0.00     0.064 A 
HETATM    6  C   UNL     1       4.541   7.080  22.944  0.00  0.00     0.016 A 
HETATM    7  N   UNL     1       6.124   5.650  23.571  0.00  0.00    -0.277 N 
HETATM    8  H   UNL     1       6.670   4.939  24.060  0.00  0.00     0.189 HD
HETATM    9  N   UNL     1       6.627   6.208  22.321  0.00  0.00    -0.178 NA
HETATM   10  C   UNL     1       5.662   7.041  21.990  0.00  0.00     0.071 A 
ENDROOT
BRANCH   1  11
HETATM   11  C   UNL     1       1.869   8.660  24.888  0.00  0.00     0.233 C 
HETATM   12  N   UNL     1       0.536   8.714  25.304  0.00  0.00    -0.351 N 
HETATM   13  C   UNL     1      -0.474   7.728  24.934  0.00  0.00     0.153 C 
HETATM   14  O   UNL     1       2.650   9.598  25.070  0.00  0.00    -0.272 OA
BRANCH  12  15
HETATM   15  C   UNL     1       0.048   9.922  25.991  0.00  0.00     0.164 C 
BRANCH  15  16
HETATM   16  C   UNL     1      -0.639  10.984  25.157  0.00  0.00    -0.040 A 
HETATM   17  C   UNL     1      -1.993  10.860  24.802  0.00  0.00     0.009 A 
HETATM   18  C   UNL     1      -2.554  11.676  23.808  0.00  0.00     0.001 A 
HETATM   19  C   UNL     1      -1.777  12.641  23.172  0.00  0.00     0.000 A 
HETATM   20  C   UNL     1      -0.453  12.823  23.561  0.00  0.00     0.001 A 
HETATM   21  C   UNL     1       0.110  12.008  24.553  0.00  0.00     0.009 A 
ENDBRANCH  15  16
ENDBRANCH  12  15
ENDBRANCH   1  11
BRANCH   3  22
HETATM   22  O   UNL     1       2.223   6.045  26.325  0.00  0.00    -0.364 OA
HETATM   23  H   UNL     1       1.643   5.287  26.121  0.00  0.00     0.217 HD
ENDBRANCH   3  22
BRANCH  10  24
HETATM   24  C   UNL     1       5.685   7.822  20.694  0.00  0.00     0.100 C 
BRANCH  24  25
HETATM   25  C   UNL     1       4.481   7.493  19.849  0.00  0.00    -0.052 A 
HETATM   26  C   UNL     1       4.162   6.161  19.561  0.00  0.00     0.007 A 
HETATM   27  C   UNL     1       3.098   5.857  18.711  0.00  0.00     0.001 A 
HETATM   28  C   UNL     1       2.344   6.879  18.138  0.00  0.00     0.007 A 
HETATM   29  C   UNL     1       2.636   8.218  18.420  0.00  0.00    -0.061 A 
HETATM   30  C   UNL     1       3.699   8.516  19.287  0.00  0.00     0.014 A 
HETATM   31  C   UNL     1       1.823   9.322  17.809  0.00  0.00     0.048 C 
ENDBRANCH  24  25
ENDBRANCH  10  24
TORSDOF 6
ENDMDL
MODEL 6
REMARK VINA RESULT:    -8.139      2.020      7.551
REMARK INTER + INTRA:         -11.845
REMARK INTER:                 -10.526
REMARK INTRA:                  -1.319
REMARK UNBOUND:                -1.088
REMARK  6 active torsions:
REMARK  status: ('A' for Active; 'I' for Inactive)
REMARK    1  A    between atoms: C_6  and  C_7 
REMARK    2  A    between atoms: C_7  and  N_8 
REMARK       I    between atoms: N_8  and  C_10 
REMARK    3  A    between atoms: C_10  and  C_12 
REMARK    4  A    between atoms: C_14  and  O_15 
REMARK    5  A    between atoms: C_22  and  C_23 
REMARK    6  A    between atoms: C_23  and  C_24 
ROOT
HETATM    1  C   UNL     1       2.518   7.475  24.026  0.00  0.00     0.158 A 
HETATM    2  C   UNL     1       3.406   7.862  22.838  0.00  0.00     0.010 A 
HETATM    3  C   UNL     1       3.235   6.526  25.002  0.00  0.00     0.062 A 
HETATM    4  C   UNL     1       4.449   5.992  24.801  0.00  0.00     0.065 A 
HETATM    5  C   UNL     1       5.150   6.352  23.578  0.00  0.00     0.064 A 
HETATM    6  C   UNL     1       4.601   7.300  22.633  0.00  0.00     0.016 A 
HETATM    7  N   UNL     1       6.282   5.935  23.141  0.00  0.00    -0.277 N 
HETATM    8  H   UNL     1       6.888   5.245  23.585  0.00  0.00     0.189 HD
HETATM    9  N   UNL     1       6.677   6.523  21.866  0.00  0.00    -0.178 NA
HETATM   10  C   UNL     1       5.658   7.316  21.607  0.00  0.00     0.071 A 
ENDROOT
BRANCH   1  11
HETATM   11  C   UNL     1       1.998   8.749  24.763  0.00  0.00     0.233 C 
HETATM   12  N   UNL     1       0.672   8.769  25.205  0.00  0.00    -0.351 N 
HETATM   13  C   UNL     1      -0.327   7.776  24.828  0.00  0.00     0.153 C 
HETATM   14  O   UNL     1       2.766   9.695  24.955  0.00  0.00    -0.272 OA
BRANCH  12  15
HETATM   15  C   UNL     1       0.178   9.949  25.934  0.00  0.00     0.164 C 
BRANCH  15  16
HETATM   16  C   UNL     1      -0.542  11.022  25.143  0.00  0.00    -0.040 A 
HETATM   17  C   UNL     1      -1.889  10.865  24.772  0.00  0.00     0.009 A 
HETATM   18  C   UNL     1      -2.473  11.703  23.812  0.00  0.00     0.001 A 
HETATM   19  C   UNL     1      -1.728  12.723  23.224  0.00  0.00     0.000 A 
HETATM   20  C   UNL     1      -0.413  12.935  23.630  0.00  0.00     0.001 A 
HETATM   21  C   UNL     1       0.173  12.097  24.590  0.00  0.00     0.009 A 
ENDBRANCH  15  16
ENDBRANCH  12  15
ENDBRANCH   1  11
BRANCH   3  22
HETATM   22  O   UNL     1       2.556   6.141  26.148  0.00  0.00    -0.364 OA
HETATM   23  H   UNL     1       1.728   5.677  25.921  0.00  0.00     0.217 HD
ENDBRANCH   3  22
BRANCH  10  24
HETATM   24  C   UNL     1       5.563   8.107  20.320  0.00  0.00     0.100 C 
BRANCH  24  25
HETATM   25  C   UNL     1       4.390   7.644  19.493  0.00  0.00    -0.052 A 
HETATM   26  C   UNL     1       3.419   8.559  19.069  0.00  0.00     0.007 A 
HETATM   27  C   UNL     1       2.291   8.122  18.376  0.00  0.00     0.001 A 
HETATM   28  C   UNL     1       2.118   6.767  18.101  0.00  0.00     0.007 A 
HETATM   29  C   UNL     1       3.080   5.834  18.505  0.00  0.00    -0.061 A 
HETATM   30  C   UNL     1       4.220   6.283  19.190  0.00  0.00     0.014 A 
HETATM   31  C   UNL     1       2.900   4.374  18.207  0.00  0.00     0.048 C 
ENDBRANCH  24  25
ENDBRANCH  10  24
TORSDOF 6
ENDMDL
MODEL 7
REMARK VINA RESULT:    -8.057      1.485      2.361
REMARK INTER + INTRA:         -11.736
REMARK INTER:                 -10.677
REMARK INTRA:                  -1.058
REMARK UNBOUND:                -1.088
REMARK  6 active torsions:
REMARK  status: ('A' for Active; 'I' for Inactive)
REMARK    1  A    between atoms: C_6  and  C_7 
REMARK    2  A    between atoms: C_7  and  N_8 
REMARK       I    between atoms: N_8  and  C_10 
REMARK    3  A    between atoms: C_10  and  C_12 
REMARK    4  A    between atoms: C_14  and  O_15 
REMARK    5  A    between atoms: C_22  and  C_23 
REMARK    6  A    between atoms: C_23  and  C_24 
ROOT
HETATM    1  C   UNL     1       2.277   8.703  25.321  0.00  0.00     0.158 A 
HETATM    2  C   UNL     1       0.853   9.257  25.198  0.00  0.00     0.010 A 
HETATM    3  C   UNL     1       2.621   8.299  26.765  0.00  0.00     0.062 A 
HETATM    4  C   UNL     1       1.830   8.506  27.830  0.00  0.00     0.065 A 
HETATM    5  C   UNL     1       0.541   9.141  27.598  0.00  0.00     0.064 A 
HETATM    6  C   UNL     1       0.087   9.487  26.269  0.00  0.00     0.016 A 
HETATM    7  N   UNL     1      -0.354   9.490  28.448  0.00  0.00    -0.277 N 
HETATM    8  H   UNL     1      -0.299   9.392  29.463  0.00  0.00     0.189 HD
HETATM    9  N   UNL     1      -1.533  10.104  27.849  0.00  0.00    -0.178 NA
HETATM   10  C   UNL     1      -1.227  10.082  26.568  0.00  0.00     0.071 A 
ENDROOT
BRANCH   1  11
HETATM   11  C   UNL     1       2.491   7.509  24.339  0.00  0.00     0.233 C 
HETATM   12  N   UNL     1       3.416   7.656  23.302  0.00  0.00    -0.351 N 
HETATM   13  C   UNL     1       4.031   8.926  22.932  0.00  0.00     0.153 C 
HETATM   14  O   UNL     1       1.859   6.463  24.510  0.00  0.00    -0.272 OA
BRANCH  12  15
HETATM   15  C   UNL     1       3.655   6.525  22.389  0.00  0.00     0.164 C 
BRANCH  15  16
HETATM   16  C   UNL     1       4.490   5.368  22.897  0.00  0.00    -0.040 A 
HETATM   17  C   UNL     1       4.138   4.039  22.601  0.00  0.00     0.009 A 
HETATM   18  C   UNL     1       4.726   2.969  23.291  0.00  0.00     0.001 A 
HETATM   19  C   UNL     1       5.688   3.209  24.269  0.00  0.00     0.000 A 
HETATM   20  C   UNL     1       6.098   4.515  24.525  0.00  0.00     0.001 A 
HETATM   21  C   UNL     1       5.511   5.586  23.838  0.00  0.00     0.009 A 
ENDBRANCH  15  16
ENDBRANCH  12  15
ENDBRANCH   1  11
BRANCH   3  22
HETATM   22  O   UNL     1       3.864   7.735  27.002  0.00  0.00    -0.364 OA
HETATM   23  H   UNL     1       4.352   7.606  26.167  0.00  0.00     0.217 HD
ENDBRANCH   3  22
BRANCH  10  24
HETATM   24  C   UNL     1      -2.127  10.695  25.517  0.00  0.00     0.100 C 
BRANCH  24  25
HETATM   25  C   UNL     1      -1.373  11.704  24.689  0.00  0.00    -0.052 A 
HETATM   26  C   UNL     1      -0.484  12.596  25.299  0.00  0.00     0.007 A 
HETATM   27  C   UNL     1       0.152  13.585  24.549  0.00  0.00     0.001 A 
HETATM   28  C   UNL     1      -0.097  13.696  23.182  0.00  0.00     0.007 A 
HETATM   29  C   UNL     1      -0.974  12.810  22.547  0.00  0.00    -0.061 A 
HETATM   30  C   UNL     1      -1.598  11.808  23.306  0.00  0.00     0.014 A 
HETATM   31  C   UNL     1      -1.241  12.923  21.074  0.00  0.00     0.048 C 
ENDBRANCH  24  25
ENDBRANCH  10  24
TORSDOF 6
ENDMDL
MODEL 8
REMARK VINA RESULT:    -7.905      4.085      7.011
REMARK INTER + INTRA:         -11.536
REMARK INTER:                 -10.529
REMARK INTRA:                  -1.006
REMARK UNBOUND:                -1.088
REMARK  6 active torsions:
REMARK  status: ('A' for Active; 'I' for Inactive)
REMARK    1  A    between atoms: C_6  and  C_7 
REMARK    2  A    between atoms: C_7  and  N_8 
REMARK       I    between atoms: N_8  and  C_10 
REMARK    3  A    between atoms: C_10  and  C_12 
REMARK    4  A    between atoms: C_14  and  O_15 
REMARK    5  A    between atoms: C_22  and  C_23 
REMARK    6  A    between atoms: C_23  and  C_24 
ROOT
HETATM    1  C   UNL     1       4.255   7.808  19.589  0.00  0.00     0.158 A 
HETATM    2  C   UNL     1       3.638   7.176  20.841  0.00  0.00     0.010 A 
HETATM    3  C   UNL     1       5.789   7.684  19.572  0.00  0.00     0.062 A 
HETATM    4  C   UNL     1       6.531   7.192  20.576  0.00  0.00     0.065 A 
HETATM    5  C   UNL     1       5.832   6.722  21.762  0.00  0.00     0.064 A 
HETATM    6  C   UNL     1       4.388   6.718  21.848  0.00  0.00     0.016 A 
HETATM    7  N   UNL     1       6.316   6.267  22.860  0.00  0.00    -0.277 N 
HETATM    8  H   UNL     1       7.305   6.174  23.095  0.00  0.00     0.189 HD
HETATM    9  N   UNL     1       5.306   5.883  23.839  0.00  0.00    -0.178 NA
HETATM   10  C   UNL     1       4.189   6.167  23.200  0.00  0.00     0.071 A 
ENDROOT
BRANCH   1  11
HETATM   11  C   UNL     1       3.629   7.195  18.297  0.00  0.00     0.233 C 
HETATM   12  N   UNL     1       2.670   7.940  17.604  0.00  0.00    -0.351 N 
HETATM   13  C   UNL     1       2.046   9.151  18.124  0.00  0.00     0.153 C 
HETATM   14  O   UNL     1       4.004   6.087  17.908  0.00  0.00    -0.272 OA
BRANCH  12  15
HETATM   15  C   UNL     1       2.097   7.391  16.363  0.00  0.00     0.164 C 
BRANCH  15  16
HETATM   16  C   UNL     1       1.078   6.276  16.485  0.00  0.00    -0.040 A 
HETATM   17  C   UNL     1       0.281   6.149  17.636  0.00  0.00     0.009 A 
HETATM   18  C   UNL     1      -0.448   4.976  17.880  0.00  0.00     0.001 A 
HETATM   19  C   UNL     1      -0.410   3.924  16.968  0.00  0.00     0.000 A 
HETATM   20  C   UNL     1       0.319   4.061  15.790  0.00  0.00     0.001 A 
HETATM   21  C   UNL     1       1.050   5.232  15.545  0.00  0.00     0.009 A 
ENDBRANCH  15  16
ENDBRANCH  12  15
ENDBRANCH   1  11
BRANCH   3  22
HETATM   22  O   UNL     1       6.466   8.172  18.465  0.00  0.00    -0.364 OA
HETATM   23  H   UNL     1       7.427   8.027  18.555  0.00  0.00     0.217 HD
ENDBRANCH   3  22
BRANCH  10  24
HETATM   24  C   UNL     1       2.831   6.012  23.849  0.00  0.00     0.100 C 
BRANCH  24  25
HETATM   25  C   UNL     1       2.314   7.342  24.334  0.00  0.00    -0.052 A 
HETATM   26  C   UNL     1       1.063   7.430  24.956  0.00  0.00     0.007 A 
HETATM   27  C   UNL     1       0.545   8.669  25.330  0.00  0.00     0.001 A 
HETATM   28  C   UNL     1       1.269   9.835  25.085  0.00  0.00     0.007 A 
HETATM   29  C   UNL     1       2.527   9.771  24.475  0.00  0.00    -0.061 A 
HETATM   30  C   UNL     1       3.048   8.519  24.114  0.00  0.00     0.014 A 
HETATM   31  C   UNL     1       3.312  11.024  24.213  0.00  0.00     0.048 C 
ENDBRANCH  24  25
ENDBRANCH  10  24
TORSDOF 6
ENDMDL
MODEL 9
REMARK VINA RESULT:    -7.763      2.689      7.553
REMARK INTER + INTRA:         -11.348
REMARK INTER:                 -10.259
REMARK INTRA:                  -1.088
REMARK UNBOUND:                -1.088
REMARK  6 active torsions:
REMARK  status: ('A' for Active; 'I' for Inactive)
REMARK    1  A    between atoms: C_6  and  C_7 
REMARK    2  A    between atoms: C_7  and  N_8 
REMARK       I    between atoms: N_8  and  C_10 
REMARK    3  A    between atoms: C_10  and  C_12 
REMARK    4  A    between atoms: C_14  and  O_15 
REMARK    5  A    between atoms: C_22  and  C_23 
REMARK    6  A    between atoms: C_23  and  C_24 
ROOT
HETATM    1  C   UNL     1       3.131   7.101  24.210  0.00  0.00     0.158 A 
HETATM    2  C   UNL     1       2.689   6.612  22.827  0.00  0.00     0.010 A 
HETATM    3  C   UNL     1       4.656   7.024  24.394  0.00  0.00     0.062 A 
HETATM    4  C   UNL     1       5.511   6.486  23.509  0.00  0.00     0.065 A 
HETATM    5  C   UNL     1       4.955   5.954  22.274  0.00  0.00     0.064 A 
HETATM    6  C   UNL     1       3.544   6.050  21.967  0.00  0.00     0.016 A 
HETATM    7  N   UNL     1       5.551   5.350  21.312  0.00  0.00    -0.277 N 
HETATM    8  H   UNL     1       6.544   5.120  21.263  0.00  0.00     0.189 HD
HETATM    9  N   UNL     1       4.667   4.956  20.222  0.00  0.00    -0.178 NA
HETATM   10  C   UNL     1       3.499   5.387  20.652  0.00  0.00     0.071 A 
ENDROOT
BRANCH   1  11
HETATM   11  C   UNL     1       2.607   8.547  24.476  0.00  0.00     0.233 C 
HETATM   12  N   UNL     1       1.590   8.725  25.419  0.00  0.00    -0.351 N 
HETATM   13  C   UNL     1       0.825   7.631  26.008  0.00  0.00     0.153 C 
HETATM   14  O   UNL     1       3.110   9.496  23.869  0.00  0.00    -0.272 OA
BRANCH  12  15
HETATM   15  C   UNL     1       1.111  10.087  25.708  0.00  0.00     0.164 C 
BRANCH  15  16
HETATM   16  C   UNL     1       0.063  10.680  24.787  0.00  0.00    -0.040 A 
HETATM   17  C   UNL     1       0.295  11.894  24.117  0.00  0.00     0.009 A 
HETATM   18  C   UNL     1      -0.757  12.587  23.501  0.00  0.00     0.001 A 
HETATM   19  C   UNL     1      -2.049  12.067  23.524  0.00  0.00     0.000 A 
HETATM   20  C   UNL     1      -2.282  10.832  24.124  0.00  0.00     0.001 A 
HETATM   21  C   UNL     1      -1.233  10.139  24.742  0.00  0.00     0.009 A 
ENDBRANCH  15  16
ENDBRANCH  12  15
ENDBRANCH   1  11
BRANCH   3  22
HETATM   22  O   UNL     1       5.190   7.486  25.587  0.00  0.00    -0.364 OA
HETATM   23  H   UNL     1       4.489   7.613  26.255  0.00  0.00     0.217 HD
ENDBRANCH   3  22
BRANCH  10  24
HETATM   24  C   UNL     1       2.219   5.139  19.883  0.00  0.00     0.100 C 
BRANCH  24  25
HETATM   25  C   UNL     1       2.108   6.080  18.710  0.00  0.00    -0.052 A 
HETATM   26  C   UNL     1       2.441   7.432  18.854  0.00  0.00     0.007 A 
HETATM   27  C   UNL     1       2.260   8.321  17.795  0.00  0.00     0.001 A 
HETATM   28  C   UNL     1       1.741   7.871  16.582  0.00  0.00     0.007 A 
HETATM   29  C   UNL     1       1.410   6.522  16.411  0.00  0.00    -0.061 A 
HETATM   30  C   UNL     1       1.609   5.630  17.477  0.00  0.00     0.014 A 
HETATM   31  C   UNL     1       0.855   6.031  15.105  0.00  0.00     0.048 C 
ENDBRANCH  24  25
ENDBRANCH  10  24
TORSDOF 6
ENDMDL
