MODEL 1
REMARK VINA RESULT:    -7.190      0.000      0.000
REMARK INTER + INTRA:          -9.158
REMARK INTER:                  -8.112
REMARK INTRA:                  -1.045
REMARK UNBOUND:                -0.706
REMARK  4 active torsions:
REMARK  status: ('A' for Active; 'I' for Inactive)
REMARK    1  A    between atoms: O_1  and  C_2 
REMARK    2  A    between atoms: C_4  and  O_5 
REMARK    3  A    between atoms: C_6  and  C_10 
REMARK    4  A    between atoms: N_16  and  C_17 
ROOT
HETATM    1  C   UNL     1      -2.035  11.674  22.748  0.00  0.00     0.172 A 
HETATM    2  N   UNL     1      -2.483  11.012  21.714  0.00  0.00    -0.151 NA
HETATM    3  N   UNL     1      -1.693  11.391  20.675  0.00  0.00    -0.226 N 
HETATM    4  H   UNL     1      -1.694  10.912  19.783  0.00  0.00     0.194 HD
HETATM    5  C   UNL     1      -0.719  12.282  21.097  0.00  0.00     0.349 A 
HETATM    6  O   UNL     1       0.202  12.684  20.406  0.00  0.00    -0.245 OA
HETATM    7  N   UNL     1      -0.982  12.510  22.438  0.00  0.00    -0.241 N 
ENDROOT
BRANCH   1   8
HETATM    8  C   UNL     1      -2.674  11.556  24.093  0.00  0.00     0.047 C 
HETATM    9  C   UNL     1      -4.004  11.973  24.294  0.00  0.00     0.082 C 
HETATM   10  C   UNL     1      -4.642  11.793  25.524  0.00  0.00     0.075 C 
HETATM   11  C   UNL     1      -3.958  11.184  26.572  0.00  0.00     0.085 C 
HETATM   12  C   UNL     1      -2.617  10.829  26.415  0.00  0.00     0.040 C 
HETATM   13  C   UNL     1      -1.967  11.056  25.195  0.00  0.00     0.039 C 
HETATM   14  I   UNL     1      -1.543   9.887  27.943  0.00  0.00    -0.042 I 
BRANCH   9  15
HETATM   15  O   UNL     1      -4.729  12.537  23.280  0.00  0.00    -0.360 OA
HETATM   16  H   UNL     1      -4.173  13.149  22.771  0.00  0.00     0.217 HD
ENDBRANCH   9  15
BRANCH  11  17
HETATM   17  O   UNL     1      -4.611  10.932  27.745  0.00  0.00    -0.359 OA
HETATM   18  H   UNL     1      -4.495  11.683  28.351  0.00  0.00     0.217 HD
ENDBRANCH  11  17
ENDBRANCH   1   8
BRANCH   7  19
HETATM   19  C   UNL     1      -0.087  13.260  23.224  0.00  0.00     0.084 A 
HETATM   20  C   UNL     1      -0.387  14.539  23.700  0.00  0.00     0.143 A 
HETATM   21  F   UNL     1      -1.565  15.114  23.419  0.00  0.00    -0.204 F 
HETATM   22  C   UNL     1       0.504  15.225  24.527  0.00  0.00     0.044 A 
HETATM   23  C   UNL     1       1.714  14.636  24.885  0.00  0.00     0.003 A 
HETATM   24  C   UNL     1       2.035  13.364  24.419  0.00  0.00     0.002 A 
HETATM   25  C   UNL     1       1.134  12.678  23.602  0.00  0.00     0.033 A 
ENDBRANCH   7  19
TORSDOF 4
ENDMDL
MODEL 2
REMARK VINA RESULT:    -7.018      3.331      5.672
REMARK INTER + INTRA:          -8.955
REMARK INTER:                  -7.892
REMARK INTRA:                  -1.064
REMARK UNBOUND:                -0.706
REMARK  4 active torsions:
REMARK  status: ('A' for Active; 'I' for Inactive)
REMARK    1  A    between atoms: O_1  and  C_2 
REMARK    2  A    between atoms: C_4  and  O_5 
REMARK    3  A    between atoms: C_6  and  C_10 
REMARK    4  A    between atoms: N_16  and  C_17 
ROOT
HETATM    1  C   UNL     1      -3.073  12.721  25.473  0.00  0.00     0.172 A 
HETATM    2  N   UNL     1      -4.256  13.277  25.454  0.00  0.00    -0.151 NA
HETATM    3  N   UNL     1      -5.113  12.311  25.877  0.00  0.00    -0.226 N 
HETATM    4  H   UNL     1      -6.075  12.503  26.129  0.00  0.00     0.194 HD
HETATM    5  C   UNL     1      -4.428  11.148  26.192  0.00  0.00     0.349 A 
HETATM    6  O   UNL     1      -4.927  10.166  26.717  0.00  0.00    -0.245 OA
HETATM    7  N   UNL     1      -3.104  11.401  25.870  0.00  0.00    -0.241 N 
ENDROOT
BRANCH   1   8
HETATM    8  C   UNL     1      -1.852  13.460  25.033  0.00  0.00     0.047 C 
HETATM    9  C   UNL     1      -1.251  14.416  25.874  0.00  0.00     0.082 C 
HETATM   10  C   UNL     1      -0.063  15.056  25.511  0.00  0.00     0.075 C 
HETATM   11  C   UNL     1       0.548  14.740  24.301  0.00  0.00     0.085 C 
HETATM   12  C   UNL     1      -0.068  13.848  23.422  0.00  0.00     0.040 C 
HETATM   13  C   UNL     1      -1.286  13.246  23.769  0.00  0.00     0.039 C 
HETATM   14  I   UNL     1       0.810  13.312  21.601  0.00  0.00    -0.042 I 
BRANCH   9  15
HETATM   15  O   UNL     1      -1.793  14.728  27.091  0.00  0.00    -0.360 OA
HETATM   16  H   UNL     1      -2.738  14.508  27.103  0.00  0.00     0.217 HD
ENDBRANCH   9  15
BRANCH  11  17
HETATM   17  O   UNL     1       1.753  15.303  23.988  0.00  0.00    -0.359 OA
HETATM   18  H   UNL     1       2.412  14.604  23.840  0.00  0.00     0.217 HD
ENDBRANCH  11  17
ENDBRANCH   1   8
BRANCH   7  19
HETATM   19  C   UNL     1      -2.098  10.474  26.205  0.00  0.00     0.084 A 
HETATM   20  C   UNL     1      -1.381   9.755  25.244  0.00  0.00     0.143 A 
HETATM   21  F   UNL     1      -1.630   9.925  23.938  0.00  0.00    -0.204 F 
HETATM   22  C   UNL     1      -0.350   8.891  25.616  0.00  0.00     0.044 A 
HETATM   23  C   UNL     1      -0.027   8.732  26.961  0.00  0.00     0.003 A 
HETATM   24  C   UNL     1      -0.732   9.434  27.935  0.00  0.00     0.002 A 
HETATM   25  C   UNL     1      -1.754  10.307  27.557  0.00  0.00     0.033 A 
ENDBRANCH   7  19
TORSDOF 4
ENDMDL
MODEL 3
REMARK VINA RESULT:    -6.972      2.684      3.643
REMARK INTER + INTRA:          -8.901
REMARK INTER:                  -7.886
REMARK INTRA:                  -1.015
REMARK UNBOUND:                -0.706
REMARK  4 active torsions:
REMARK  status: ('A' for Active; 'I' for Inactive)
REMARK    1  A    between atoms: O_1  and  C_2 
REMARK    2  A    between atoms: C_4  and  O_5 
REMARK    3  A    between atoms: C_6  and  C_10 
REMARK    4  A    between atoms: N_16  and  C_17 
ROOT
HETATM    1  C   UNL     1      -3.018  11.500  24.669  0.00  0.00     0.172 A 
HETATM    2  N   UNL     1      -4.105  11.056  24.093  0.00  0.00    -0.151 NA
HETATM    3  N   UNL     1      -4.732  12.160  23.608  0.00  0.00    -0.226 N 
HETATM    4  H   UNL     1      -5.511  12.109  22.964  0.00  0.00     0.194 HD
HETATM    5  C   UNL     1      -3.990  13.301  23.869  0.00  0.00     0.349 A 
HETATM    6  O   UNL     1      -4.248  14.413  23.438  0.00  0.00    -0.245 OA
HETATM    7  N   UNL     1      -2.902  12.873  24.613  0.00  0.00    -0.241 N 
ENDROOT
BRANCH   1   8
HETATM    8  C   UNL     1      -2.066  10.582  25.363  0.00  0.00     0.047 C 
HETATM    9  C   UNL     1      -2.175  10.349  26.747  0.00  0.00     0.082 C 
HETATM   10  C   UNL     1      -1.345   9.431  27.395  0.00  0.00     0.075 C 
HETATM   11  C   UNL     1      -0.396   8.724  26.662  0.00  0.00     0.085 C 
HETATM   12  C   UNL     1      -0.224   8.992  25.304  0.00  0.00     0.040 C 
HETATM   13  C   UNL     1      -1.026   9.950  24.668  0.00  0.00     0.039 C 
HETATM   14  I   UNL     1       1.166   7.947  24.143  0.00  0.00    -0.042 I 
BRANCH   9  15
HETATM   15  O   UNL     1      -3.122  10.989  27.500  0.00  0.00    -0.360 OA
HETATM   16  H   UNL     1      -2.700  11.623  28.101  0.00  0.00     0.217 HD
ENDBRANCH   9  15
BRANCH  11  17
HETATM   17  O   UNL     1       0.356   7.766  27.282  0.00  0.00    -0.359 OA
HETATM   18  H   UNL     1       1.287   7.865  27.026  0.00  0.00     0.217 HD
ENDBRANCH  11  17
ENDBRANCH   1   8
BRANCH   7  19
HETATM   19  C   UNL     1      -1.856  13.762  24.925  0.00  0.00     0.084 A 
HETATM   20  C   UNL     1      -1.671  14.293  26.205  0.00  0.00     0.143 A 
HETATM   21  F   UNL     1      -2.502  13.969  27.206  0.00  0.00    -0.204 F 
HETATM   22  C   UNL     1      -0.586  15.124  26.487  0.00  0.00     0.044 A 
HETATM   23  C   UNL     1       0.329  15.438  25.485  0.00  0.00     0.003 A 
HETATM   24  C   UNL     1       0.161  14.924  24.202  0.00  0.00     0.002 A 
HETATM   25  C   UNL     1      -0.919  14.083  23.929  0.00  0.00     0.033 A 
ENDBRANCH   7  19
TORSDOF 4
ENDMDL
MODEL 4
REMARK VINA RESULT:    -6.940      2.940      5.460
REMARK INTER + INTRA:          -8.863
REMARK INTER:                  -8.103
REMARK INTRA:                  -0.760
REMARK UNBOUND:                -0.706
REMARK  4 active torsions:
REMARK  status: ('A' for Active; 'I' for Inactive)
REMARK    1  A    between atoms: O_1  and  C_2 
REMARK    2  A    between atoms: C_4  and  O_5 
REMARK    3  A    between atoms: C_6  and  C_10 
REMARK    4  A    between atoms: N_16  and  C_17 
ROOT
HETATM    1  C   UNL     1      -3.215  12.504  24.949  0.00  0.00     0.172 A 
HETATM    2  N   UNL     1      -4.343  13.139  25.137  0.00  0.00    -0.151 NA
HETATM    3  N   UNL     1      -5.027  12.395  26.046  0.00  0.00    -0.226 N 
HETATM    4  H   UNL     1      -5.859  12.729  26.514  0.00  0.00     0.194 HD
HETATM    5  C   UNL     1      -4.280  11.296  26.443  0.00  0.00     0.349 A 
HETATM    6  O   UNL     1      -4.592  10.530  27.341  0.00  0.00    -0.245 OA
HETATM    7  N   UNL     1      -3.124  11.339  25.680  0.00  0.00    -0.241 N 
ENDROOT
BRANCH   1   8
HETATM    8  C   UNL     1      -2.192  12.994  23.977  0.00  0.00     0.047 C 
HETATM    9  C   UNL     1      -2.476  13.040  22.599  0.00  0.00     0.082 C 
HETATM   10  C   UNL     1      -1.559  13.572  21.688  0.00  0.00     0.075 C 
HETATM   11  C   UNL     1      -0.346  14.076  22.146  0.00  0.00     0.085 C 
HETATM   12  C   UNL     1      -0.016  13.974  23.499  0.00  0.00     0.040 C 
HETATM   13  C   UNL     1      -0.917  13.394  24.402  0.00  0.00     0.039 C 
HETATM   14  I   UNL     1       1.780  14.734  24.254  0.00  0.00    -0.042 I 
BRANCH   9  15
HETATM   15  O   UNL     1      -3.673  12.596  22.108  0.00  0.00    -0.360 OA
HETATM   16  H   UNL     1      -4.340  12.583  22.813  0.00  0.00     0.217 HD
ENDBRANCH   9  15
BRANCH  11  17
HETATM   17  O   UNL     1       0.511  14.672  21.265  0.00  0.00    -0.359 OA
HETATM   18  H   UNL     1       0.145  14.621  20.367  0.00  0.00     0.217 HD
ENDBRANCH  11  17
ENDBRANCH   1   8
BRANCH   7  19
HETATM   19  C   UNL     1      -2.067  10.444  25.935  0.00  0.00     0.084 A 
HETATM   20  C   UNL     1      -1.434   9.714  24.926  0.00  0.00     0.143 A 
HETATM   21  F   UNL     1      -1.819   9.840  23.647  0.00  0.00    -0.204 F 
HETATM   22  C   UNL     1      -0.350   8.883  25.212  0.00  0.00     0.044 A 
HETATM   23  C   UNL     1       0.112   8.770  26.522  0.00  0.00     0.003 A 
HETATM   24  C   UNL     1      -0.507   9.484  27.543  0.00  0.00     0.002 A 
HETATM   25  C   UNL     1      -1.583  10.324  27.248  0.00  0.00     0.033 A 
ENDBRANCH   7  19
TORSDOF 4
ENDMDL
MODEL 5
REMARK VINA RESULT:    -6.902      2.441      3.088
REMARK INTER + INTRA:          -8.819
REMARK INTER:                  -7.730
REMARK INTRA:                  -1.088
REMARK UNBOUND:                -0.706
REMARK  4 active torsions:
REMARK  status: ('A' for Active; 'I' for Inactive)
REMARK    1  A    between atoms: O_1  and  C_2 
REMARK    2  A    between atoms: C_4  and  O_5 
REMARK    3  A    between atoms: C_6  and  C_10 
REMARK    4  A    between atoms: N_16  and  C_17 
ROOT
HETATM    1  C   UNL     1      -3.188  12.392  23.343  0.00  0.00     0.172 A 
HETATM    2  N   UNL     1      -4.491  12.438  23.241  0.00  0.00    -0.151 NA
HETATM    3  N   UNL     1      -4.739  13.204  22.146  0.00  0.00    -0.226 N 
HETATM    4  H   UNL     1      -5.655  13.272  21.721  0.00  0.00     0.194 HD
HETATM    5  C   UNL     1      -3.555  13.606  21.549  0.00  0.00     0.349 A 
HETATM    6  O   UNL     1      -3.478  14.193  20.482  0.00  0.00    -0.245 OA
HETATM    7  N   UNL     1      -2.545  13.124  22.367  0.00  0.00    -0.241 N 
ENDROOT
BRANCH   1   8
HETATM    8  C   UNL     1      -2.514  11.665  24.460  0.00  0.00     0.047 C 
HETATM    9  C   UNL     1      -2.769  12.014  25.800  0.00  0.00     0.082 C 
HETATM   10  C   UNL     1      -2.209  11.291  26.856  0.00  0.00     0.075 C 
HETATM   11  C   UNL     1      -1.390  10.198  26.585  0.00  0.00     0.085 C 
HETATM   12  C   UNL     1      -1.067   9.880  25.265  0.00  0.00     0.040 C 
HETATM   13  C   UNL     1      -1.592  10.640  24.210  0.00  0.00     0.039 C 
HETATM   14  I   UNL     1       0.136   8.237  24.791  0.00  0.00    -0.042 I 
BRANCH   9  15
HETATM   15  O   UNL     1      -3.601  13.054  26.114  0.00  0.00    -0.360 OA
HETATM   16  H   UNL     1      -3.577  13.226  27.068  0.00  0.00     0.217 HD
ENDBRANCH   9  15
BRANCH  11  17
HETATM   17  O   UNL     1      -0.914   9.442  27.618  0.00  0.00    -0.359 OA
HETATM   18  H   UNL     1       0.053   9.366  27.549  0.00  0.00     0.217 HD
ENDBRANCH  11  17
ENDBRANCH   1   8
BRANCH   7  19
HETATM   19  C   UNL     1      -1.197  13.227  21.974  0.00  0.00     0.084 A 
HETATM   20  C   UNL     1      -0.592  12.319  21.102  0.00  0.00     0.143 A 
HETATM   21  F   UNL     1      -1.288  11.291  20.595  0.00  0.00    -0.204 F 
HETATM   22  C   UNL     1       0.730  12.491  20.689  0.00  0.00     0.044 A 
HETATM   23  C   UNL     1       1.467  13.579  21.153  0.00  0.00     0.003 A 
HETATM   24  C   UNL     1       0.885  14.494  22.026  0.00  0.00     0.002 A 
HETATM   25  C   UNL     1      -0.442  14.323  22.425  0.00  0.00     0.033 A 
ENDBRANCH   7  19
TORSDOF 4
ENDMDL
MODEL 6
REMARK VINA RESULT:    -6.876      2.684      3.676
REMARK INTER + INTRA:          -8.788
REMARK INTER:                  -7.683
REMARK INTRA:                  -1.105
REMARK UNBOUND:                -0.706
REMARK  4 active torsions:
REMARK  status: ('A' for Active; 'I' for Inactive)
REMARK    1  A    between atoms: O_1  and  C_2 
REMARK    2  A    between atoms: C_4  and  O_5 
REMARK    3  A    between atoms: C_6  and  C_10 
REMARK    4  A    between atoms: N_16  and  C_17 
ROOT
HETATM    1  C   UNL     1      -2.823  11.593  24.183  0.00  0.00     0.172 A 
HETATM    2  N   UNL     1      -3.943  11.214  23.624  0.00  0.00    -0.151 NA
HETATM    3  N   UNL     1      -4.688  12.344  23.509  0.00  0.00    -0.226 N 
HETATM    4  H   UNL     1      -5.534  12.389  22.955  0.00  0.00     0.194 HD
HETATM    5  C   UNL     1      -3.989  13.444  23.981  0.00  0.00     0.349 A 
HETATM    6  O   UNL     1      -4.363  14.602  23.882  0.00  0.00    -0.245 OA
HETATM    7  N   UNL     1      -2.796  12.940  24.475  0.00  0.00    -0.241 N 
ENDROOT
BRANCH   1   8
HETATM    8  C   UNL     1      -1.742  10.618  24.515  0.00  0.00     0.047 C 
HETATM    9  C   UNL     1      -0.844  10.178  23.523  0.00  0.00     0.082 C 
HETATM   10  C   UNL     1       0.222   9.329  23.836  0.00  0.00     0.075 C 
HETATM   11  C   UNL     1       0.410   8.916  25.151  0.00  0.00     0.085 C 
HETATM   12  C   UNL     1      -0.510   9.282  26.135  0.00  0.00     0.040 C 
HETATM   13  C   UNL     1      -1.606  10.093  25.807  0.00  0.00     0.039 C 
HETATM   14  I   UNL     1      -0.270   8.714  28.133  0.00  0.00    -0.042 I 
BRANCH   9  15
HETATM   15  O   UNL     1      -0.965  10.593  22.225  0.00  0.00    -0.360 OA
HETATM   16  H   UNL     1      -0.484  11.426  22.094  0.00  0.00     0.217 HD
ENDBRANCH   9  15
BRANCH  11  17
HETATM   17  O   UNL     1       1.500   8.157  25.469  0.00  0.00    -0.359 OA
HETATM   18  H   UNL     1       1.716   8.270  26.409  0.00  0.00     0.217 HD
ENDBRANCH  11  17
ENDBRANCH   1   8
BRANCH   7  19
HETATM   19  C   UNL     1      -1.776  13.811  24.901  0.00  0.00     0.084 A 
HETATM   20  C   UNL     1      -1.672  14.269  26.217  0.00  0.00     0.143 A 
HETATM   21  F   UNL     1      -2.561  13.888  27.145  0.00  0.00    -0.204 F 
HETATM   22  C   UNL     1      -0.609  15.083  26.613  0.00  0.00     0.044 A 
HETATM   23  C   UNL     1       0.364  15.454  25.688  0.00  0.00     0.003 A 
HETATM   24  C   UNL     1       0.278  15.013  24.370  0.00  0.00     0.002 A 
HETATM   25  C   UNL     1      -0.780  14.188  23.984  0.00  0.00     0.033 A 
ENDBRANCH   7  19
TORSDOF 4
ENDMDL
MODEL 7
REMARK VINA RESULT:    -6.853      2.771      4.068
REMARK INTER + INTRA:          -8.761
REMARK INTER:                  -7.929
REMARK INTRA:                  -0.832
REMARK UNBOUND:                -0.706
REMARK  4 active torsions:
REMARK  status: ('A' for Active; 'I' for Inactive)
REMARK    1  A    between atoms: O_1  and  C_2 
REMARK    2  A    between atoms: C_4  and  O_5 
REMARK    3  A    between atoms: C_6  and  C_10 
REMARK    4  A    between atoms: N_16  and  C_17 
ROOT
HETATM    1  C   UNL     1      -2.975  11.660  25.314  0.00  0.00     0.172 A 
HETATM    2  N   UNL     1      -4.149  11.878  25.847  0.00  0.00    -0.151 NA
HETATM    3  N   UNL     1      -4.696  12.880  25.111  0.00  0.00    -0.226 N 
HETATM    4  H   UNL     1      -5.671  13.143  25.181  0.00  0.00     0.194 HD
HETATM    5  C   UNL     1      -3.845  13.259  24.084  0.00  0.00     0.349 A 
HETATM    6  O   UNL     1      -4.131  14.044  23.195  0.00  0.00    -0.245 OA
HETATM    7  N   UNL     1      -2.698  12.501  24.258  0.00  0.00    -0.241 N 
ENDROOT
BRANCH   1   8
HETATM    8  C   UNL     1      -2.037  10.640  25.873  0.00  0.00     0.047 C 
HETATM    9  C   UNL     1      -1.951  10.431  27.263  0.00  0.00     0.082 C 
HETATM   10  C   UNL     1      -1.139   9.425  27.796  0.00  0.00     0.075 C 
HETATM   11  C   UNL     1      -0.408   8.606  26.941  0.00  0.00     0.085 C 
HETATM   12  C   UNL     1      -0.424   8.843  25.565  0.00  0.00     0.040 C 
HETATM   13  C   UNL     1      -1.201   9.885  25.040  0.00  0.00     0.039 C 
HETATM   14  I   UNL     1       0.633   7.632  24.227  0.00  0.00    -0.042 I 
BRANCH   9  15
HETATM   15  O   UNL     1      -2.685  11.184  28.138  0.00  0.00    -0.360 OA
HETATM   16  H   UNL     1      -2.428  12.117  28.075  0.00  0.00     0.217 HD
ENDBRANCH   9  15
BRANCH  11  17
HETATM   17  O   UNL     1       0.317   7.570  27.459  0.00  0.00    -0.359 OA
HETATM   18  H   UNL     1      -0.178   7.155  28.185  0.00  0.00     0.217 HD
ENDBRANCH  11  17
ENDBRANCH   1   8
BRANCH   7  19
HETATM   19  C   UNL     1      -1.673  12.526  23.293  0.00  0.00     0.084 A 
HETATM   20  C   UNL     1      -1.706  11.748  22.133  0.00  0.00     0.143 A 
HETATM   21  F   UNL     1      -2.738  10.928  21.890  0.00  0.00    -0.204 F 
HETATM   22  C   UNL     1      -0.699  11.848  21.172  0.00  0.00     0.044 A 
HETATM   23  C   UNL     1       0.362  12.730  21.365  0.00  0.00     0.003 A 
HETATM   24  C   UNL     1       0.417  13.511  22.516  0.00  0.00     0.002 A 
HETATM   25  C   UNL     1      -0.600  13.416  23.468  0.00  0.00     0.033 A 
ENDBRANCH   7  19
TORSDOF 4
ENDMDL
MODEL 8
REMARK VINA RESULT:    -6.742      2.440      2.799
REMARK INTER + INTRA:          -8.631
REMARK INTER:                  -7.619
REMARK INTRA:                  -1.012
REMARK UNBOUND:                -0.706
REMARK  4 active torsions:
REMARK  status: ('A' for Active; 'I' for Inactive)
REMARK    1  A    between atoms: O_1  and  C_2 
REMARK    2  A    between atoms: C_4  and  O_5 
REMARK    3  A    between atoms: C_6  and  C_10 
REMARK    4  A    between atoms: N_16  and  C_17 
ROOT
HETATM    1  C   UNL     1      -1.773  11.441  22.718  0.00  0.00     0.172 A 
HETATM    2  N   UNL     1      -2.505  10.956  21.749  0.00  0.00    -0.151 NA
HETATM    3  N   UNL     1      -2.860  12.030  20.996  0.00  0.00    -0.226 N 
HETATM    4  H   UNL     1      -3.284  11.942  20.081  0.00  0.00     0.194 HD
HETATM    5  C   UNL     1      -2.302  13.193  21.503  0.00  0.00     0.349 A 
HETATM    6  O   UNL     1      -2.348  14.283  20.957  0.00  0.00    -0.245 OA
HETATM    7  N   UNL     1      -1.643  12.812  22.661  0.00  0.00    -0.241 N 
ENDROOT
BRANCH   1   8
HETATM    8  C   UNL     1      -1.215  10.566  23.792  0.00  0.00     0.047 C 
HETATM    9  C   UNL     1      -1.806  10.534  25.070  0.00  0.00     0.082 C 
HETATM   10  C   UNL     1      -1.346   9.661  26.060  0.00  0.00     0.075 C 
HETATM   11  C   UNL     1      -0.290   8.798  25.780  0.00  0.00     0.085 C 
HETATM   12  C   UNL     1       0.355   8.865  24.544  0.00  0.00     0.040 C 
HETATM   13  C   UNL     1      -0.078   9.777  23.572  0.00  0.00     0.039 C 
HETATM   14  I   UNL     1       1.930   7.579  24.055  0.00  0.00    -0.042 I 
BRANCH   9  15
HETATM   15  O   UNL     1      -2.873  11.333  25.376  0.00  0.00    -0.360 OA
HETATM   16  H   UNL     1      -2.605  12.027  26.000  0.00  0.00     0.217 HD
ENDBRANCH   9  15
BRANCH  11  17
HETATM   17  O   UNL     1       0.101   7.887  26.720  0.00  0.00    -0.359 OA
HETATM   18  H   UNL     1      -0.635   7.707  27.328  0.00  0.00     0.217 HD
ENDBRANCH  11  17
ENDBRANCH   1   8
BRANCH   7  19
HETATM   19  C   UNL     1      -0.834  13.730  23.357  0.00  0.00     0.084 A 
HETATM   20  C   UNL     1      -1.324  14.551  24.376  0.00  0.00     0.143 A 
HETATM   21  F   UNL     1      -2.614  14.494  24.737  0.00  0.00    -0.204 F 
HETATM   22  C   UNL     1      -0.476  15.405  25.082  0.00  0.00     0.044 A 
HETATM   23  C   UNL     1       0.882  15.450  24.771  0.00  0.00     0.003 A 
HETATM   24  C   UNL     1       1.391  14.644  23.756  0.00  0.00     0.002 A 
HETATM   25  C   UNL     1       0.539  13.783  23.062  0.00  0.00     0.033 A 
ENDBRANCH   7  19
TORSDOF 4
ENDMDL
MODEL 9
REMARK VINA RESULT:    -6.708      4.058      5.728
REMARK INTER + INTRA:          -8.591
REMARK INTER:                  -7.885
REMARK INTRA:                  -0.706
REMARK UNBOUND:                -0.706
REMARK  4 active torsions:
REMARK  status: ('A' for Active; 'I' for Inactive)
REMARK    1  A    between atoms: O_1  and  C_2 
REMARK    2  A    between atoms: C_4  and  O_5 
REMARK    3  A    between atoms: C_6  and  C_10 
REMARK    4  A    between atoms: N_16  and  C_17 
ROOT
HETATM    1  C   UNL     1      -1.865  10.081  27.237  0.00  0.00     0.172 A 
HETATM    2  N   UNL     1      -2.063  10.472  28.469  0.00  0.00    -0.151 NA
HETATM    3  N   UNL     1      -1.153   9.789  29.212  0.00  0.00    -0.226 N 
HETATM    4  H   UNL     1      -0.954  10.015  30.179  0.00  0.00     0.194 HD
HETATM    5  C   UNL     1      -0.360   8.987  28.406  0.00  0.00     0.349 A 
HETATM    6  O   UNL     1       0.617   8.365  28.788  0.00  0.00    -0.245 OA
HETATM    7  N   UNL     1      -0.868   9.136  27.125  0.00  0.00    -0.241 N 
ENDROOT
BRANCH   1   8
HETATM    8  C   UNL     1      -2.705  10.585  26.110  0.00  0.00     0.047 C 
HETATM    9  C   UNL     1      -4.060  10.911  26.315  0.00  0.00     0.082 C 
HETATM   10  C   UNL     1      -4.837  11.460  25.291  0.00  0.00     0.075 C 
HETATM   11  C   UNL     1      -4.264  11.700  24.046  0.00  0.00     0.085 C 
HETATM   12  C   UNL     1      -2.943  11.319  23.801  0.00  0.00     0.040 C 
HETATM   13  C   UNL     1      -2.183  10.722  24.816  0.00  0.00     0.039 C 
HETATM   14  I   UNL     1      -2.018  11.675  21.959  0.00  0.00    -0.042 I 
BRANCH   9  15
HETATM   15  O   UNL     1      -4.653  10.732  27.535  0.00  0.00    -0.360 OA
HETATM   16  H   UNL     1      -4.061  10.242  28.127  0.00  0.00     0.217 HD
ENDBRANCH   9  15
BRANCH  11  17
HETATM   17  O   UNL     1      -5.001  12.316  23.074  0.00  0.00    -0.359 OA
HETATM   18  H   UNL     1      -5.738  12.800  23.480  0.00  0.00     0.217 HD
ENDBRANCH  11  17
ENDBRANCH   1   8
BRANCH   7  19
HETATM   19  C   UNL     1      -0.199   8.570  26.022  0.00  0.00     0.084 A 
HETATM   20  C   UNL     1       0.818   9.233  25.331  0.00  0.00     0.143 A 
HETATM   21  F   UNL     1       1.205  10.463  25.700  0.00  0.00    -0.204 F 
HETATM   22  C   UNL     1       1.497   8.612  24.282  0.00  0.00     0.044 A 
HETATM   23  C   UNL     1       1.159   7.314  23.907  0.00  0.00     0.003 A 
HETATM   24  C   UNL     1       0.145   6.636  24.578  0.00  0.00     0.002 A 
HETATM   25  C   UNL     1      -0.522   7.258  25.636  0.00  0.00     0.033 A 
ENDBRANCH   7  19
TORSDOF 4
ENDMDL
