REMARK  4 active torsions:
REMARK  status: ('A' for Active; 'I' for Inactive)
REMARK    1  A    between atoms: O_1  and  C_2 
REMARK    2  A    between atoms: C_4  and  O_5 
REMARK    3  A    between atoms: C_6  and  C_10 
REMARK    4  A    between atoms: N_16  and  C_17 
ROOT
HETATM    1  C   UNL     1       6.701   0.030  -0.474  0.00  0.00     0.172 A 
HETATM    2  N   UNL     1       7.435   1.112  -0.457  0.00  0.00    -0.151 NA
HETATM    3  N   UNL     1       8.696   0.695  -0.744  0.00  0.00    -0.226 N 
HETATM    4  H   UNL     1       9.447   1.335  -0.970  0.00  0.00     0.194 HD
HETATM    5  C   UNL     1       8.722  -0.672  -0.973  0.00  0.00     0.349 A 
HETATM    6  O   UNL     1       9.693  -1.292  -1.375  0.00  0.00    -0.245 OA
HETATM    7  N   UNL     1       7.429  -1.111  -0.737  0.00  0.00    -0.241 N 
ENDROOT
BRANCH   1   8
HETATM    8  C   UNL     1       5.240   0.068  -0.165  0.00  0.00     0.047 C 
HETATM    9  C   UNL     1       4.484   1.229  -0.416  0.00  0.00     0.082 C 
HETATM   10  C   UNL     1       3.102   1.253  -0.209  0.00  0.00     0.075 C 
HETATM   11  C   UNL     1       2.454   0.108   0.245  0.00  0.00     0.085 C 
HETATM   12  C   UNL     1       3.195  -1.030   0.568  0.00  0.00     0.040 C 
HETATM   13  C   UNL     1       4.587  -1.033   0.406  0.00  0.00     0.039 C 
HETATM   14  I   UNL     1       2.278  -2.789   1.231  0.00  0.00    -0.042 I 
BRANCH   9  15
HETATM   15  O   UNL     1       5.072   2.364  -0.904  0.00  0.00    -0.360 OA
HETATM   16  H   UNL     1       4.513   3.136  -0.722  0.00  0.00     0.217 HD
ENDBRANCH   9  15
BRANCH  11  17
HETATM   17  O   UNL     1       1.093   0.108   0.365  0.00  0.00    -0.359 OA
HETATM   18  H   UNL     1       0.728   0.906  -0.052  0.00  0.00     0.217 HD
ENDBRANCH  11  17
ENDBRANCH   1   8
BRANCH   7  19
HETATM   19  C   UNL     1       7.063  -2.440  -1.023  0.00  0.00     0.084 A 
HETATM   20  C   UNL     1       5.996  -2.767  -1.864  0.00  0.00     0.143 A 
HETATM   21  F   UNL     1       5.263  -1.805  -2.443  0.00  0.00    -0.204 F 
HETATM   22  C   UNL     1       5.704  -4.097  -2.170  0.00  0.00     0.044 A 
HETATM   23  C   UNL     1       6.479  -5.121  -1.630  0.00  0.00     0.003 A 
HETATM   24  C   UNL     1       7.544  -4.818  -0.786  0.00  0.00     0.002 A 
HETATM   25  C   UNL     1       7.839  -3.485  -0.494  0.00  0.00     0.033 A 
ENDBRANCH   7  19
TORSDOF 4
