REMARK  9 active torsions:
REMARK  status: ('A' for Active; 'I' for Inactive)
REMARK    1  A    between atoms: C_5  and  N_6 
REMARK    2  A    between atoms: C_10  and  C_17 
REMARK    3  A    between atoms: N_11  and  C_12 
REMARK    4  A    between atoms: C_12  and  C_13 
REMARK    5  A    between atoms: C_13  and  C_14 
REMARK    6  A    between atoms: C_17  and  C_18 
REMARK    7  A    between atoms: C_21  and  O_22 
REMARK    8  A    between atoms: C_24  and  O_25 
REMARK    9  A    between atoms: C_27  and  O_29 
ROOT
HETATM    1  C   UNL     1      -1.630   2.539   1.830  0.00  0.00     0.094 C 
HETATM    2  C   UNL     1      -3.009   2.479   2.330  0.00  0.00    -0.117 C 
HETATM    3  C   UNL     1      -4.136   2.420   2.746  0.00  0.00     0.012 C 
ENDROOT
BRANCH   1   4
HETATM    4  C   UNL     1      -0.785   1.367   2.328  0.00  0.00     0.032 C 
BRANCH   4   5
HETATM    5  C   UNL     1      -1.263  -0.015   1.853  0.00  0.00     0.133 C 
BRANCH   5   6
HETATM    6  N   UNL     1      -1.292  -0.188   0.413  0.00  0.00    -0.317 N 
HETATM    7  C   UNL     1      -0.186  -0.104  -0.399  0.00  0.00     0.168 A 
HETATM    8  N   UNL     1       1.092   0.119  -0.054  0.00  0.00    -0.182 NA
HETATM    9  C   UNL     1      -0.654  -0.358  -1.671  0.00  0.00     0.145 A 
HETATM   10  C   UNL     1       1.914   0.042  -1.126  0.00  0.00     0.312 A 
HETATM   11  F   UNL     1       3.220   0.221  -0.876  0.00  0.00    -0.161 F 
HETATM   12  N   UNL     1       1.586  -0.230  -2.407  0.00  0.00    -0.189 NA
HETATM   13  C   UNL     1       0.285  -0.419  -2.707  0.00  0.00     0.138 A 
HETATM   14  N   UNL     1      -1.993  -0.610  -1.664  0.00  0.00    -0.228 NA
HETATM   15  C   UNL     1      -2.337  -0.620  -0.386  0.00  0.00     0.113 C 
BRANCH  13  16
HETATM   16  N   UNL     1      -0.083  -0.761  -3.998  0.00  0.00    -0.285 NA
HETATM   17  H   UNL     1       0.660  -1.217  -4.510  0.00  0.00     0.125 HD
HETATM   18  H   UNL     1      -1.004  -1.196  -4.038  0.00  0.00     0.125 HD
ENDBRANCH  13  16
BRANCH  15  19
HETATM   19  C   UNL     1      -3.615  -1.232   0.067  0.00  0.00     0.119 C 
BRANCH  19  20
HETATM   20  C   UNL     1      -3.595  -2.761   0.114  0.00  0.00    -0.024 C 
HETATM   21  C   UNL     1      -4.775  -3.466   0.393  0.00  0.00     0.077 C 
HETATM   22 CL   UNL     1      -6.291  -2.656   0.114  0.00  0.00    -0.081 Cl
HETATM   23  C   UNL     1      -4.728  -4.828   0.739  0.00  0.00     0.126 C 
HETATM   24  C   UNL     1      -3.534  -5.567   0.534  0.00  0.00     0.136 C 
HETATM   25  C   UNL     1      -2.385  -4.907   0.059  0.00  0.00     0.104 C 
HETATM   26  C   UNL     1      -2.419  -3.513  -0.081  0.00  0.00     0.049 C 
BRANCH  23  27
HETATM   27  O   UNL     1      -5.825  -5.521   1.215  0.00  0.00    -0.351 OA
HETATM   28  C   UNL     1      -6.517  -4.870   2.286  0.00  0.00     0.210 C 
ENDBRANCH  23  27
BRANCH  24  29
HETATM   29  O   UNL     1      -3.602  -6.899   0.883  0.00  0.00    -0.351 OA
HETATM   30  C   UNL     1      -2.770  -7.817   0.182  0.00  0.00     0.210 C 
ENDBRANCH  24  29
BRANCH  25  31
HETATM   31  O   UNL     1      -1.253  -5.637  -0.199  0.00  0.00    -0.353 OA
HETATM   32  C   UNL     1      -0.175  -5.009  -0.890  0.00  0.00     0.210 C 
ENDBRANCH  25  31
ENDBRANCH  19  20
ENDBRANCH  15  19
ENDBRANCH   5   6
ENDBRANCH   4   5
ENDBRANCH   1   4
TORSDOF 9
