MODEL 1
REMARK VINA RESULT:    -8.060      0.000      0.000
REMARK INTER + INTRA:         -12.112
REMARK INTER:                 -10.480
REMARK INTRA:                  -1.631
REMARK UNBOUND:                -1.225
REMARK  7 active torsions:
REMARK  status: ('A' for Active; 'I' for Inactive)
REMARK    1  A    between atoms: C_7  and  N_8 
REMARK    2  A    between atoms: C_14  and  C_15 
REMARK    3  A    between atoms: C_16  and  O_17 
REMARK    4  A    between atoms: C_19  and  O_20 
REMARK    5  A    between atoms: C_22  and  C_23 
REMARK       I    between atoms: C_23  and  N_25 
REMARK    6  A    between atoms: N_25  and  C_27 
REMARK    7  A    between atoms: C_27  and  C_28 
ROOT
HETATM    1  C   UNL     1       8.488  11.213  24.349  0.00  0.00     0.046 C 
HETATM    2  C   UNL     1       9.356  10.183  23.909  0.00  0.00     0.082 C 
HETATM    3  C   UNL     1       8.937   9.180  23.042  0.00  0.00     0.075 C 
HETATM    4  C   UNL     1       7.644   9.208  22.535  0.00  0.00     0.084 C 
HETATM    5  C   UNL     1       7.137  11.120  23.957  0.00  0.00     0.038 C 
HETATM    6  C   UNL     1       6.725  10.199  22.940  0.00  0.00     0.066 C 
ENDROOT
BRANCH   1   7
HETATM    7  C   UNL     1       9.125  12.339  25.123  0.00  0.00     0.172 A 
HETATM    8  N   UNL     1       8.876  13.710  25.149  0.00  0.00    -0.244 N 
HETATM    9  C   UNL     1       9.904  14.224  25.945  0.00  0.00     0.349 A 
HETATM   10  O   UNL     1      10.247  15.370  26.181  0.00  0.00    -0.245 OA
HETATM   11  N   UNL     1      10.612  13.136  26.411  0.00  0.00    -0.226 N 
HETATM   12  H   UNL     1      11.485  13.201  26.919  0.00  0.00     0.194 HD
HETATM   13  N   UNL     1      10.148  11.995  25.881  0.00  0.00    -0.151 NA
BRANCH   8  14
HETATM   14  C   UNL     1       7.896  14.584  24.570  0.00  0.00     0.051 C 
HETATM   15  C   UNL     1       7.952  15.143  23.287  0.00  0.00    -0.035 C 
HETATM   16  C   UNL     1       9.248  15.500  22.613  0.00  0.00     0.050 C 
HETATM   17  C   UNL     1       6.793  15.703  22.699  0.00  0.00     0.009 C 
HETATM   18  C   UNL     1       5.678  16.006  23.468  0.00  0.00     0.001 C 
HETATM   19  C   UNL     1       5.706  15.720  24.820  0.00  0.00     0.002 C 
HETATM   20  C   UNL     1       6.769  14.973  25.342  0.00  0.00     0.031 C 
ENDBRANCH   8  14
ENDBRANCH   1   7
BRANCH   2  21
HETATM   21  O   UNL     1      10.683  10.090  24.258  0.00  0.00    -0.360 OA
HETATM   22  H   UNL     1      11.222  10.223  23.448  0.00  0.00     0.217 HD
ENDBRANCH   2  21
BRANCH   6  23
HETATM   23  C   UNL     1       5.591  10.532  21.966  0.00  0.00     0.256 C 
HETATM   24  O   UNL     1       4.579   9.815  22.019  0.00  0.00    -0.267 OA
HETATM   25  N   UNL     1       5.707  11.462  20.921  0.00  0.00    -0.352 N 
HETATM   26  C   UNL     1       6.814  12.381  20.755  0.00  0.00     0.152 C 
BRANCH  25  27
HETATM   27  C   UNL     1       4.803  11.326  19.760  0.00  0.00     0.125 C 
BRANCH  27  28
HETATM   28  C   UNL     1       5.377  10.741  18.460  0.00  0.00     0.015 C 
HETATM   29  C   UNL     1       5.813   9.286  18.526  0.00  0.00     0.006 C 
ENDBRANCH  27  28
ENDBRANCH  25  27
ENDBRANCH   6  23
BRANCH   4  30
HETATM   30  O   UNL     1       7.303   8.244  21.623  0.00  0.00    -0.360 OA
HETATM   31  H   UNL     1       7.379   8.611  20.726  0.00  0.00     0.217 HD
ENDBRANCH   4  30
TORSDOF 7
ENDMDL
MODEL 2
REMARK VINA RESULT:    -7.832      2.909      4.578
REMARK INTER + INTRA:         -11.805
REMARK INTER:                 -10.268
REMARK INTRA:                  -1.536
REMARK UNBOUND:                -1.225
REMARK  7 active torsions:
REMARK  status: ('A' for Active; 'I' for Inactive)
REMARK    1  A    between atoms: C_7  and  N_8 
REMARK    2  A    between atoms: C_14  and  C_15 
REMARK    3  A    between atoms: C_16  and  O_17 
REMARK    4  A    between atoms: C_19  and  O_20 
REMARK    5  A    between atoms: C_22  and  C_23 
REMARK       I    between atoms: C_23  and  N_25 
REMARK    6  A    between atoms: N_25  and  C_27 
REMARK    7  A    between atoms: C_27  and  C_28 
ROOT
HETATM    1  C   UNL     1       7.065  11.291  21.269  0.00  0.00     0.046 C 
HETATM    2  C   UNL     1       6.685  10.797  19.996  0.00  0.00     0.082 C 
HETATM    3  C   UNL     1       5.774   9.758  19.846  0.00  0.00     0.075 C 
HETATM    4  C   UNL     1       5.163   9.214  20.969  0.00  0.00     0.084 C 
HETATM    5  C   UNL     1       6.562  10.608  22.395  0.00  0.00     0.038 C 
HETATM    6  C   UNL     1       5.503   9.652  22.266  0.00  0.00     0.066 C 
ENDROOT
BRANCH   1   7
HETATM    7  C   UNL     1       7.903  12.545  21.277  0.00  0.00     0.172 A 
HETATM    8  N   UNL     1       7.721  13.784  21.890  0.00  0.00    -0.244 N 
HETATM    9  C   UNL     1       8.765  14.565  21.385  0.00  0.00     0.349 A 
HETATM   10  O   UNL     1       8.998  15.758  21.476  0.00  0.00    -0.245 OA
HETATM   11  N   UNL     1       9.536  13.724  20.610  0.00  0.00    -0.226 N 
HETATM   12  H   UNL     1      10.298  14.035  20.020  0.00  0.00     0.194 HD
HETATM   13  N   UNL     1       8.986  12.504  20.527  0.00  0.00    -0.151 NA
BRANCH   8  14
HETATM   14  C   UNL     1       6.772  14.341  22.810  0.00  0.00     0.051 C 
HETATM   15  C   UNL     1       7.071  14.895  24.062  0.00  0.00    -0.035 C 
HETATM   16  C   UNL     1       8.210  14.407  24.915  0.00  0.00     0.050 C 
HETATM   17  C   UNL     1       6.125  15.709  24.728  0.00  0.00     0.009 C 
HETATM   18  C   UNL     1       4.793  15.722  24.337  0.00  0.00     0.001 C 
HETATM   19  C   UNL     1       4.410  14.947  23.260  0.00  0.00     0.002 C 
HETATM   20  C   UNL     1       5.391  14.319  22.482  0.00  0.00     0.031 C 
ENDBRANCH   8  14
ENDBRANCH   1   7
BRANCH   2  21
HETATM   21  O   UNL     1       7.141  11.307  18.803  0.00  0.00    -0.360 OA
HETATM   22  H   UNL     1       7.472  10.561  18.258  0.00  0.00     0.217 HD
ENDBRANCH   2  21
BRANCH   6  23
HETATM   23  C   UNL     1       4.443   9.474  23.358  0.00  0.00     0.256 C 
HETATM   24  O   UNL     1       3.488  10.264  23.345  0.00  0.00    -0.267 OA
HETATM   25  N   UNL     1       4.589   8.605  24.451  0.00  0.00    -0.352 N 
HETATM   26  C   UNL     1       5.634   7.611  24.582  0.00  0.00     0.152 C 
BRANCH  25  27
HETATM   27  C   UNL     1       3.811   8.886  25.675  0.00  0.00     0.125 C 
BRANCH  27  28
HETATM   28  C   UNL     1       3.830   7.842  26.802  0.00  0.00     0.015 C 
HETATM   29  C   UNL     1       3.800   8.396  28.218  0.00  0.00     0.006 C 
ENDBRANCH  27  28
ENDBRANCH  25  27
ENDBRANCH   6  23
BRANCH   4  30
HETATM   30  O   UNL     1       4.215   8.247  20.764  0.00  0.00    -0.360 OA
HETATM   31  H   UNL     1       4.499   7.669  20.035  0.00  0.00     0.217 HD
ENDBRANCH   4  30
TORSDOF 7
ENDMDL
MODEL 3
REMARK VINA RESULT:    -7.571      2.130      2.675
REMARK INTER + INTRA:         -11.452
REMARK INTER:                  -9.984
REMARK INTRA:                  -1.468
REMARK UNBOUND:                -1.225
REMARK  7 active torsions:
REMARK  status: ('A' for Active; 'I' for Inactive)
REMARK    1  A    between atoms: C_7  and  N_8 
REMARK    2  A    between atoms: C_14  and  C_15 
REMARK    3  A    between atoms: C_16  and  O_17 
REMARK    4  A    between atoms: C_19  and  O_20 
REMARK    5  A    between atoms: C_22  and  C_23 
REMARK       I    between atoms: C_23  and  N_25 
REMARK    6  A    between atoms: N_25  and  C_27 
REMARK    7  A    between atoms: C_27  and  C_28 
ROOT
HETATM    1  C   UNL     1       8.708  11.211  22.991  0.00  0.00     0.046 C 
HETATM    2  C   UNL     1       9.568  10.490  23.855  0.00  0.00     0.082 C 
HETATM    3  C   UNL     1       9.373   9.143  24.140  0.00  0.00     0.075 C 
HETATM    4  C   UNL     1       8.338   8.454  23.521  0.00  0.00     0.084 C 
HETATM    5  C   UNL     1       7.567  10.533  22.513  0.00  0.00     0.038 C 
HETATM    6  C   UNL     1       7.438   9.114  22.659  0.00  0.00     0.066 C 
ENDROOT
BRANCH   1   7
HETATM    7  C   UNL     1       9.150  12.603  22.614  0.00  0.00     0.172 A 
HETATM    8  N   UNL     1       8.491  13.831  22.643  0.00  0.00    -0.244 N 
HETATM    9  C   UNL     1       9.387  14.707  22.023  0.00  0.00     0.349 A 
HETATM   10  O   UNL     1       9.262  15.864  21.658  0.00  0.00    -0.245 OA
HETATM   11  N   UNL     1      10.529  13.978  21.771  0.00  0.00    -0.226 N 
HETATM   12  H   UNL     1      11.310  14.316  21.222  0.00  0.00     0.194 HD
HETATM   13  N   UNL     1      10.365  12.690  22.108  0.00  0.00    -0.151 NA
BRANCH   8  14
HETATM   14  C   UNL     1       7.220  14.299  23.115  0.00  0.00     0.051 C 
HETATM   15  C   UNL     1       7.005  15.080  24.258  0.00  0.00    -0.035 C 
HETATM   16  C   UNL     1       7.869  14.976  25.486  0.00  0.00     0.050 C 
HETATM   17  C   UNL     1       5.779  15.760  24.441  0.00  0.00     0.009 C 
HETATM   18  C   UNL     1       4.660  15.430  23.687  0.00  0.00     0.001 C 
HETATM   19  C   UNL     1       4.775  14.443  22.727  0.00  0.00     0.002 C 
HETATM   20  C   UNL     1       6.041  13.934  22.412  0.00  0.00     0.031 C 
ENDBRANCH   8  14
ENDBRANCH   1   7
BRANCH   2  21
HETATM   21  O   UNL     1      10.683  11.025  24.458  0.00  0.00    -0.360 OA
HETATM   22  H   UNL     1      11.477  10.634  24.034  0.00  0.00     0.217 HD
ENDBRANCH   2  21
BRANCH   6  23
HETATM   23  C   UNL     1       6.739   8.258  21.599  0.00  0.00     0.256 C 
HETATM   24  O   UNL     1       7.343   7.246  21.209  0.00  0.00    -0.267 OA
HETATM   25  N   UNL     1       5.568   8.647  20.929  0.00  0.00    -0.352 N 
HETATM   26  C   UNL     1       4.748   9.783  21.296  0.00  0.00     0.152 C 
BRANCH  25  27
HETATM   27  C   UNL     1       5.286   8.048  19.608  0.00  0.00     0.125 C 
BRANCH  27  28
HETATM   28  C   UNL     1       5.757   8.803  18.356  0.00  0.00     0.015 C 
HETATM   29  C   UNL     1       4.663   9.466  17.533  0.00  0.00     0.006 C 
ENDBRANCH  27  28
ENDBRANCH  25  27
ENDBRANCH   6  23
BRANCH   4  30
HETATM   30  O   UNL     1       8.235   7.111  23.774  0.00  0.00    -0.360 OA
HETATM   31  H   UNL     1       7.501   6.958  24.393  0.00  0.00     0.217 HD
ENDBRANCH   4  30
TORSDOF 7
ENDMDL
MODEL 4
REMARK VINA RESULT:    -7.528      2.063      2.989
REMARK INTER + INTRA:         -11.393
REMARK INTER:                  -9.450
REMARK INTRA:                  -1.943
REMARK UNBOUND:                -1.225
REMARK  7 active torsions:
REMARK  status: ('A' for Active; 'I' for Inactive)
REMARK    1  A    between atoms: C_7  and  N_8 
REMARK    2  A    between atoms: C_14  and  C_15 
REMARK    3  A    between atoms: C_16  and  O_17 
REMARK    4  A    between atoms: C_19  and  O_20 
REMARK    5  A    between atoms: C_22  and  C_23 
REMARK       I    between atoms: C_23  and  N_25 
REMARK    6  A    between atoms: N_25  and  C_27 
REMARK    7  A    between atoms: C_27  and  C_28 
ROOT
HETATM    1  C   UNL     1       7.447  10.724  23.485  0.00  0.00     0.046 C 
HETATM    2  C   UNL     1       7.836   9.748  22.534  0.00  0.00     0.082 C 
HETATM    3  C   UNL     1       6.909   9.041  21.777  0.00  0.00     0.075 C 
HETATM    4  C   UNL     1       5.556   9.330  21.904  0.00  0.00     0.084 C 
HETATM    5  C   UNL     1       6.064  10.875  23.717  0.00  0.00     0.038 C 
HETATM    6  C   UNL     1       5.100  10.283  22.839  0.00  0.00     0.066 C 
ENDROOT
BRANCH   1   7
HETATM    7  C   UNL     1       8.556  11.551  24.086  0.00  0.00     0.172 A 
HETATM    8  N   UNL     1       8.686  12.923  24.300  0.00  0.00    -0.244 N 
HETATM    9  C   UNL     1      10.004  13.070  24.744  0.00  0.00     0.349 A 
HETATM   10  O   UNL     1      10.683  14.064  24.939  0.00  0.00    -0.245 OA
HETATM   11  N   UNL     1      10.516  11.795  24.861  0.00  0.00    -0.226 N 
HETATM   12  H   UNL     1      11.489  11.590  25.051  0.00  0.00     0.194 HD
HETATM   13  N   UNL     1       9.637  10.879  24.430  0.00  0.00    -0.151 NA
BRANCH   8  14
HETATM   14  C   UNL     1       7.834  14.067  24.150  0.00  0.00     0.051 C 
HETATM   15  C   UNL     1       7.672  14.822  22.980  0.00  0.00    -0.035 C 
HETATM   16  C   UNL     1       8.779  15.018  21.981  0.00  0.00     0.050 C 
HETATM   17  C   UNL     1       6.573  15.702  22.844  0.00  0.00     0.009 C 
HETATM   18  C   UNL     1       5.824  16.086  23.948  0.00  0.00     0.001 C 
HETATM   19  C   UNL     1       6.151  15.566  25.185  0.00  0.00     0.002 C 
HETATM   20  C   UNL     1       7.097  14.536  25.269  0.00  0.00     0.031 C 
ENDBRANCH   8  14
ENDBRANCH   1   7
BRANCH   2  21
HETATM   21  O   UNL     1       9.142   9.432  22.242  0.00  0.00    -0.360 OA
HETATM   22  H   UNL     1       9.677  10.252  22.309  0.00  0.00     0.217 HD
ENDBRANCH   2  21
BRANCH   6  23
HETATM   23  C   UNL     1       3.762  10.964  22.538  0.00  0.00     0.256 C 
HETATM   24  O   UNL     1       3.703  11.653  21.509  0.00  0.00    -0.267 OA
HETATM   25  N   UNL     1       2.684  10.997  23.438  0.00  0.00    -0.352 N 
HETATM   26  C   UNL     1       2.605  10.222  24.658  0.00  0.00     0.152 C 
BRANCH  25  27
HETATM   27  C   UNL     1       1.691  12.082  23.299  0.00  0.00     0.125 C 
BRANCH  27  28
HETATM   28  C   UNL     1       1.946  13.399  24.048  0.00  0.00     0.015 C 
HETATM   29  C   UNL     1       2.474  14.549  23.203  0.00  0.00     0.006 C 
ENDBRANCH  27  28
ENDBRANCH  25  27
ENDBRANCH   6  23
BRANCH   4  30
HETATM   30  O   UNL     1       4.689   8.662  21.080  0.00  0.00    -0.360 OA
HETATM   31  H   UNL     1       3.791   8.716  21.449  0.00  0.00     0.217 HD
ENDBRANCH   4  30
TORSDOF 7
ENDMDL
MODEL 5
REMARK VINA RESULT:    -7.454      2.476      3.749
REMARK INTER + INTRA:         -11.294
REMARK INTER:                 -10.353
REMARK INTRA:                  -0.941
REMARK UNBOUND:                -1.225
REMARK  7 active torsions:
REMARK  status: ('A' for Active; 'I' for Inactive)
REMARK    1  A    between atoms: C_7  and  N_8 
REMARK    2  A    between atoms: C_14  and  C_15 
REMARK    3  A    between atoms: C_16  and  O_17 
REMARK    4  A    between atoms: C_19  and  O_20 
REMARK    5  A    between atoms: C_22  and  C_23 
REMARK       I    between atoms: C_23  and  N_25 
REMARK    6  A    between atoms: N_25  and  C_27 
REMARK    7  A    between atoms: C_27  and  C_28 
ROOT
HETATM    1  C   UNL     1       6.952  11.367  21.024  0.00  0.00     0.046 C 
HETATM    2  C   UNL     1       7.019  10.171  21.780  0.00  0.00     0.082 C 
HETATM    3  C   UNL     1       6.105   9.137  21.613  0.00  0.00     0.075 C 
HETATM    4  C   UNL     1       5.123   9.240  20.636  0.00  0.00     0.084 C 
HETATM    5  C   UNL     1       5.845  11.518  20.163  0.00  0.00     0.038 C 
HETATM    6  C   UNL     1       4.994  10.408  19.856  0.00  0.00     0.066 C 
ENDROOT
BRANCH   1   7
HETATM    7  C   UNL     1       8.117  12.315  21.166  0.00  0.00     0.172 A 
HETATM    8  N   UNL     1       8.314  13.437  21.969  0.00  0.00    -0.244 N 
HETATM    9  C   UNL     1       9.529  13.963  21.519  0.00  0.00     0.349 A 
HETATM   10  O   UNL     1      10.098  15.011  21.773  0.00  0.00    -0.245 OA
HETATM   11  N   UNL     1      10.007  13.078  20.576  0.00  0.00    -0.226 N 
HETATM   12  H   UNL     1      10.814  13.253  19.990  0.00  0.00     0.194 HD
HETATM   13  N   UNL     1       9.126  12.093  20.347  0.00  0.00    -0.151 NA
BRANCH   8  14
HETATM   14  C   UNL     1       7.585  14.081  23.024  0.00  0.00     0.051 C 
HETATM   15  C   UNL     1       7.823  13.929  24.396  0.00  0.00    -0.035 C 
HETATM   16  C   UNL     1       8.336  12.648  24.994  0.00  0.00     0.050 C 
HETATM   17  C   UNL     1       7.283  14.852  25.322  0.00  0.00     0.009 C 
HETATM   18  C   UNL     1       6.266  15.722  24.953  0.00  0.00     0.001 C 
HETATM   19  C   UNL     1       5.808  15.693  23.650  0.00  0.00     0.002 C 
HETATM   20  C   UNL     1       6.495  14.930  22.697  0.00  0.00     0.031 C 
ENDBRANCH   8  14
ENDBRANCH   1   7
BRANCH   2  21
HETATM   21  O   UNL     1       7.994   9.900  22.711  0.00  0.00    -0.360 OA
HETATM   22  H   UNL     1       8.863  10.135  22.321  0.00  0.00     0.217 HD
ENDBRANCH   2  21
BRANCH   6  23
HETATM   23  C   UNL     1       4.342  10.252  18.479  0.00  0.00     0.256 C 
HETATM   24  O   UNL     1       3.352  10.963  18.244  0.00  0.00    -0.267 OA
HETATM   25  N   UNL     1       4.683   9.244  17.563  0.00  0.00    -0.352 N 
HETATM   26  C   UNL     1       5.826   8.365  17.693  0.00  0.00     0.152 C 
BRANCH  25  27
HETATM   27  C   UNL     1       3.683   8.853  16.549  0.00  0.00     0.125 C 
BRANCH  27  28
HETATM   28  C   UNL     1       3.042   7.462  16.661  0.00  0.00     0.015 C 
HETATM   29  C   UNL     1       2.195   7.222  17.901  0.00  0.00     0.006 C 
ENDBRANCH  27  28
ENDBRANCH  25  27
ENDBRANCH   6  23
BRANCH   4  30
HETATM   30  O   UNL     1       4.297   8.162  20.457  0.00  0.00    -0.360 OA
HETATM   31  H   UNL     1       3.797   8.002  21.276  0.00  0.00     0.217 HD
ENDBRANCH   4  30
TORSDOF 7
ENDMDL
MODEL 6
REMARK VINA RESULT:    -7.336      2.758      3.653
REMARK INTER + INTRA:         -11.134
REMARK INTER:                  -9.610
REMARK INTRA:                  -1.524
REMARK UNBOUND:                -1.225
REMARK  7 active torsions:
REMARK  status: ('A' for Active; 'I' for Inactive)
REMARK    1  A    between atoms: C_7  and  N_8 
REMARK    2  A    between atoms: C_14  and  C_15 
REMARK    3  A    between atoms: C_16  and  O_17 
REMARK    4  A    between atoms: C_19  and  O_20 
REMARK    5  A    between atoms: C_22  and  C_23 
REMARK       I    between atoms: C_23  and  N_25 
REMARK    6  A    between atoms: N_25  and  C_27 
REMARK    7  A    between atoms: C_27  and  C_28 
ROOT
HETATM    1  C   UNL     1       7.490  10.618  23.248  0.00  0.00     0.046 C 
HETATM    2  C   UNL     1       7.536  10.630  21.833  0.00  0.00     0.082 C 
HETATM    3  C   UNL     1       6.516  10.097  21.053  0.00  0.00     0.075 C 
HETATM    4  C   UNL     1       5.380   9.584  21.667  0.00  0.00     0.084 C 
HETATM    5  C   UNL     1       6.410   9.937  23.847  0.00  0.00     0.038 C 
HETATM    6  C   UNL     1       5.274   9.531  23.073  0.00  0.00     0.066 C 
ENDROOT
BRANCH   1   7
HETATM    7  C   UNL     1       8.563  11.404  23.960  0.00  0.00     0.172 A 
HETATM    8  N   UNL     1       8.683  12.760  24.258  0.00  0.00    -0.244 N 
HETATM    9  C   UNL     1       9.972  12.876  24.786  0.00  0.00     0.349 A 
HETATM   10  O   UNL     1      10.641  13.854  25.077  0.00  0.00    -0.245 OA
HETATM   11  N   UNL     1      10.475  11.594  24.861  0.00  0.00    -0.226 N 
HETATM   12  H   UNL     1      11.435  11.373  25.096  0.00  0.00     0.194 HD
HETATM   13  N   UNL     1       9.621  10.708  24.328  0.00  0.00    -0.151 NA
BRANCH   8  14
HETATM   14  C   UNL     1       7.843  13.916  24.123  0.00  0.00     0.051 C 
HETATM   15  C   UNL     1       7.623  14.637  22.942  0.00  0.00    -0.035 C 
HETATM   16  C   UNL     1       8.670  14.782  21.873  0.00  0.00     0.050 C 
HETATM   17  C   UNL     1       6.533  15.534  22.844  0.00  0.00     0.009 C 
HETATM   18  C   UNL     1       5.860  15.966  23.979  0.00  0.00     0.001 C 
HETATM   19  C   UNL     1       6.252  15.477  25.210  0.00  0.00     0.002 C 
HETATM   20  C   UNL     1       7.183  14.433  25.270  0.00  0.00     0.031 C 
ENDBRANCH   8  14
ENDBRANCH   1   7
BRANCH   2  21
HETATM   21  O   UNL     1       8.555  11.191  21.098  0.00  0.00    -0.360 OA
HETATM   22  H   UNL     1       8.199  11.431  20.216  0.00  0.00     0.217 HD
ENDBRANCH   2  21
BRANCH   6  23
HETATM   23  C   UNL     1       3.861   9.526  23.662  0.00  0.00     0.256 C 
HETATM   24  O   UNL     1       3.279  10.620  23.733  0.00  0.00    -0.267 OA
HETATM   25  N   UNL     1       3.277   8.408  24.279  0.00  0.00    -0.352 N 
HETATM   26  C   UNL     1       3.827   7.069  24.248  0.00  0.00     0.152 C 
BRANCH  25  27
HETATM   27  C   UNL     1       2.189   8.635  25.252  0.00  0.00     0.125 C 
BRANCH  27  28
HETATM   28  C   UNL     1       0.756   8.268  24.836  0.00  0.00     0.015 C 
HETATM   29  C   UNL     1      -0.331   8.602  25.845  0.00  0.00     0.006 C 
ENDBRANCH  27  28
ENDBRANCH  25  27
ENDBRANCH   6  23
BRANCH   4  30
HETATM   30  O   UNL     1       4.369   9.143  20.855  0.00  0.00    -0.360 OA
HETATM   31  H   UNL     1       3.599   9.729  20.956  0.00  0.00     0.217 HD
ENDBRANCH   4  30
TORSDOF 7
ENDMDL
MODEL 7
REMARK VINA RESULT:    -7.313      3.527      6.015
REMARK INTER + INTRA:         -11.104
REMARK INTER:                  -9.450
REMARK INTRA:                  -1.654
REMARK UNBOUND:                -1.225
REMARK  7 active torsions:
REMARK  status: ('A' for Active; 'I' for Inactive)
REMARK    1  A    between atoms: C_7  and  N_8 
REMARK    2  A    between atoms: C_14  and  C_15 
REMARK    3  A    between atoms: C_16  and  O_17 
REMARK    4  A    between atoms: C_19  and  O_20 
REMARK    5  A    between atoms: C_22  and  C_23 
REMARK       I    between atoms: C_23  and  N_25 
REMARK    6  A    between atoms: N_25  and  C_27 
REMARK    7  A    between atoms: C_27  and  C_28 
ROOT
HETATM    1  C   UNL     1       6.674  14.269  22.536  0.00  0.00     0.046 C 
HETATM    2  C   UNL     1       6.998  15.258  23.497  0.00  0.00     0.082 C 
HETATM    3  C   UNL     1       6.047  15.796  24.357  0.00  0.00     0.075 C 
HETATM    4  C   UNL     1       4.744  15.317  24.325  0.00  0.00     0.084 C 
HETATM    5  C   UNL     1       5.312  13.926  22.407  0.00  0.00     0.038 C 
HETATM    6  C   UNL     1       4.351  14.342  23.385  0.00  0.00     0.066 C 
ENDROOT
BRANCH   1   7
HETATM    7  C   UNL     1       7.834  13.634  21.811  0.00  0.00     0.172 A 
HETATM    8  N   UNL     1       8.321  12.328  21.795  0.00  0.00    -0.244 N 
HETATM    9  C   UNL     1       9.505  12.421  21.057  0.00  0.00     0.349 A 
HETATM   10  O   UNL     1      10.396  11.613  20.856  0.00  0.00    -0.245 OA
HETATM   11  N   UNL     1       9.580  13.723  20.609  0.00  0.00    -0.226 N 
HETATM   12  H   UNL     1      10.389  14.118  20.145  0.00  0.00     0.194 HD
HETATM   13  N   UNL     1       8.573  14.461  21.098  0.00  0.00    -0.151 NA
BRANCH   8  14
HETATM   14  C   UNL     1       7.897  11.071  22.340  0.00  0.00     0.051 C 
HETATM   15  C   UNL     1       6.973  10.193  21.757  0.00  0.00    -0.035 C 
HETATM   16  C   UNL     1       5.820  10.669  20.916  0.00  0.00     0.050 C 
HETATM   17  C   UNL     1       6.884   8.852  22.197  0.00  0.00     0.009 C 
HETATM   18  C   UNL     1       7.454   8.456  23.400  0.00  0.00     0.001 C 
HETATM   19  C   UNL     1       8.142   9.392  24.148  0.00  0.00     0.002 C 
HETATM   20  C   UNL     1       8.404  10.653  23.599  0.00  0.00     0.031 C 
ENDBRANCH   8  14
ENDBRANCH   1   7
BRANCH   2  21
HETATM   21  O   UNL     1       8.266  15.751  23.700  0.00  0.00    -0.360 OA
HETATM   22  H   UNL     1       8.441  15.757  24.666  0.00  0.00     0.217 HD
ENDBRANCH   2  21
BRANCH   6  23
HETATM   23  C   UNL     1       3.153  13.463  23.758  0.00  0.00     0.256 C 
HETATM   24  O   UNL     1       3.404  12.374  24.298  0.00  0.00    -0.267 OA
HETATM   25  N   UNL     1       1.833  13.735  23.364  0.00  0.00    -0.352 N 
HETATM   26  C   UNL     1       1.393  14.973  22.755  0.00  0.00     0.152 C 
BRANCH  25  27
HETATM   27  C   UNL     1       0.877  12.611  23.302  0.00  0.00     0.125 C 
BRANCH  27  28
HETATM   28  C   UNL     1      -0.609  12.935  23.083  0.00  0.00     0.015 C 
HETATM   29  C   UNL     1      -1.593  12.100  23.888  0.00  0.00     0.006 C 
ENDBRANCH  27  28
ENDBRANCH  25  27
ENDBRANCH   6  23
BRANCH   4  30
HETATM   30  O   UNL     1       3.864  15.823  25.245  0.00  0.00    -0.360 OA
HETATM   31  H   UNL     1       3.328  15.097  25.608  0.00  0.00     0.217 HD
ENDBRANCH   4  30
TORSDOF 7
ENDMDL
MODEL 8
REMARK VINA RESULT:    -7.182      2.346      3.481
REMARK INTER + INTRA:         -10.926
REMARK INTER:                  -8.975
REMARK INTRA:                  -1.951
REMARK UNBOUND:                -1.225
REMARK  7 active torsions:
REMARK  status: ('A' for Active; 'I' for Inactive)
REMARK    1  A    between atoms: C_7  and  N_8 
REMARK    2  A    between atoms: C_14  and  C_15 
REMARK    3  A    between atoms: C_16  and  O_17 
REMARK    4  A    between atoms: C_19  and  O_20 
REMARK    5  A    between atoms: C_22  and  C_23 
REMARK       I    between atoms: C_23  and  N_25 
REMARK    6  A    between atoms: N_25  and  C_27 
REMARK    7  A    between atoms: C_27  and  C_28 
ROOT
HETATM    1  C   UNL     1       7.951  12.336  22.625  0.00  0.00     0.046 C 
HETATM    2  C   UNL     1       8.246  13.062  21.445  0.00  0.00     0.082 C 
HETATM    3  C   UNL     1       7.967  12.561  20.178  0.00  0.00     0.075 C 
HETATM    4  C   UNL     1       7.326  11.336  20.050  0.00  0.00     0.084 C 
HETATM    5  C   UNL     1       7.460  11.024  22.462  0.00  0.00     0.038 C 
HETATM    6  C   UNL     1       7.014  10.557  21.183  0.00  0.00     0.066 C 
ENDROOT
BRANCH   1   7
HETATM    7  C   UNL     1       8.121  13.077  23.927  0.00  0.00     0.172 A 
HETATM    8  N   UNL     1       7.266  13.914  24.643  0.00  0.00    -0.244 N 
HETATM    9  C   UNL     1       8.066  14.405  25.679  0.00  0.00     0.349 A 
HETATM   10  O   UNL     1       7.867  15.278  26.508  0.00  0.00    -0.245 OA
HETATM   11  N   UNL     1       9.279  13.760  25.569  0.00  0.00    -0.226 N 
HETATM   12  H   UNL     1      10.100  13.997  26.113  0.00  0.00     0.194 HD
HETATM   13  N   UNL     1       9.313  12.975  24.482  0.00  0.00    -0.151 NA
BRANCH   8  14
HETATM   14  C   UNL     1       5.897  14.326  24.519  0.00  0.00     0.051 C 
HETATM   15  C   UNL     1       4.776  13.569  24.885  0.00  0.00    -0.035 C 
HETATM   16  C   UNL     1       4.747  12.067  24.798  0.00  0.00     0.050 C 
HETATM   17  C   UNL     1       3.514  14.188  25.037  0.00  0.00     0.009 C 
HETATM   18  C   UNL     1       3.276  15.458  24.530  0.00  0.00     0.001 C 
HETATM   19  C   UNL     1       4.308  16.125  23.898  0.00  0.00     0.002 C 
HETATM   20  C   UNL     1       5.602  15.591  23.946  0.00  0.00     0.031 C 
ENDBRANCH   8  14
ENDBRANCH   1   7
BRANCH   2  21
HETATM   21  O   UNL     1       8.793  14.324  21.431  0.00  0.00    -0.360 OA
HETATM   22  H   UNL     1       8.059  14.975  21.421  0.00  0.00     0.217 HD
ENDBRANCH   2  21
BRANCH   6  23
HETATM   23  C   UNL     1       5.846   9.575  21.049  0.00  0.00     0.256 C 
HETATM   24  O   UNL     1       4.725  10.063  20.837  0.00  0.00    -0.267 OA
HETATM   25  N   UNL     1       5.945   8.203  21.330  0.00  0.00    -0.352 N 
HETATM   26  C   UNL     1       7.187   7.496  21.565  0.00  0.00     0.152 C 
BRANCH  25  27
HETATM   27  C   UNL     1       4.711   7.472  21.687  0.00  0.00     0.125 C 
BRANCH  27  28
HETATM   28  C   UNL     1       4.440   7.189  23.172  0.00  0.00     0.015 C 
HETATM   29  C   UNL     1       3.955   8.373  23.993  0.00  0.00     0.006 C 
ENDBRANCH  27  28
ENDBRANCH  25  27
ENDBRANCH   6  23
BRANCH   4  30
HETATM   30  O   UNL     1       7.002  10.924  18.784  0.00  0.00    -0.360 OA
HETATM   31  H   UNL     1       6.318  11.512  18.421  0.00  0.00     0.217 HD
ENDBRANCH   4  30
TORSDOF 7
ENDMDL
MODEL 9
REMARK VINA RESULT:    -7.165      2.689      3.995
REMARK INTER + INTRA:         -10.903
REMARK INTER:                  -9.678
REMARK INTRA:                  -1.225
REMARK UNBOUND:                -1.225
REMARK  7 active torsions:
REMARK  status: ('A' for Active; 'I' for Inactive)
REMARK    1  A    between atoms: C_7  and  N_8 
REMARK    2  A    between atoms: C_14  and  C_15 
REMARK    3  A    between atoms: C_16  and  O_17 
REMARK    4  A    between atoms: C_19  and  O_20 
REMARK    5  A    between atoms: C_22  and  C_23 
REMARK       I    between atoms: C_23  and  N_25 
REMARK    6  A    between atoms: N_25  and  C_27 
REMARK    7  A    between atoms: C_27  and  C_28 
ROOT
HETATM    1  C   UNL     1       5.353  12.070  22.623  0.00  0.00     0.046 C 
HETATM    2  C   UNL     1       6.282  11.405  23.462  0.00  0.00     0.082 C 
HETATM    3  C   UNL     1       6.928  10.237  23.073  0.00  0.00     0.075 C 
HETATM    4  C   UNL     1       6.710   9.723  21.801  0.00  0.00     0.084 C 
HETATM    5  C   UNL     1       5.020  11.434  21.409  0.00  0.00     0.038 C 
HETATM    6  C   UNL     1       5.790  10.329  20.920  0.00  0.00     0.066 C 
ENDROOT
BRANCH   1   7
HETATM    7  C   UNL     1       4.882  13.425  23.088  0.00  0.00     0.172 A 
HETATM    8  N   UNL     1       5.574  14.584  23.436  0.00  0.00    -0.244 N 
HETATM    9  C   UNL     1       4.579  15.434  23.928  0.00  0.00     0.349 A 
HETATM   10  O   UNL     1       4.646  16.512  24.495  0.00  0.00    -0.245 OA
HETATM   11  N   UNL     1       3.382  14.775  23.743  0.00  0.00    -0.226 N 
HETATM   12  H   UNL     1       2.494  15.096  24.110  0.00  0.00     0.194 HD
HETATM   13  N   UNL     1       3.580  13.541  23.259  0.00  0.00    -0.151 NA
BRANCH   8  14
HETATM   14  C   UNL     1       6.945  15.006  23.404  0.00  0.00     0.051 C 
HETATM   15  C   UNL     1       7.861  14.900  24.460  0.00  0.00    -0.035 C 
HETATM   16  C   UNL     1       7.450  14.996  25.903  0.00  0.00     0.050 C 
HETATM   17  C   UNL     1       9.248  15.029  24.218  0.00  0.00     0.009 C 
HETATM   18  C   UNL     1       9.719  15.571  23.030  0.00  0.00     0.001 C 
HETATM   19  C   UNL     1       8.805  15.956  22.068  0.00  0.00     0.002 C 
HETATM   20  C   UNL     1       7.454  15.625  22.232  0.00  0.00     0.031 C 
ENDBRANCH   8  14
ENDBRANCH   1   7
BRANCH   2  21
HETATM   21  O   UNL     1       6.660  11.856  24.705  0.00  0.00    -0.360 OA
HETATM   22  H   UNL     1       6.157  11.351  25.379  0.00  0.00     0.217 HD
ENDBRANCH   2  21
BRANCH   6  23
HETATM   23  C   UNL     1       6.017  10.109  19.421  0.00  0.00     0.256 C 
HETATM   24  O   UNL     1       6.728  10.940  18.834  0.00  0.00    -0.267 OA
HETATM   25  N   UNL     1       5.331   9.148  18.661  0.00  0.00    -0.352 N 
HETATM   26  C   UNL     1       4.496   8.103  19.214  0.00  0.00     0.152 C 
BRANCH  25  27
HETATM   27  C   UNL     1       5.215   9.362  17.204  0.00  0.00     0.125 C 
BRANCH  27  28
HETATM   28  C   UNL     1       3.968  10.088  16.675  0.00  0.00     0.015 C 
HETATM   29  C   UNL     1       3.673  11.440  17.306  0.00  0.00     0.006 C 
ENDBRANCH  27  28
ENDBRANCH  25  27
ENDBRANCH   6  23
BRANCH   4  30
HETATM   30  O   UNL     1       7.429   8.616  21.436  0.00  0.00    -0.360 OA
HETATM   31  H   UNL     1       8.191   8.892  20.898  0.00  0.00     0.217 HD
ENDBRANCH   4  30
TORSDOF 7
ENDMDL
