MODEL 1
REMARK VINA RESULT:    -8.791      0.000      0.000
REMARK INTER + INTRA:         -13.263
REMARK INTER:                 -10.798
REMARK INTRA:                  -2.465
REMARK UNBOUND:                -2.159
REMARK  5 active torsions:
REMARK  status: ('A' for Active; 'I' for Inactive)
REMARK    1  A    between atoms: C_7  and  C_8 
REMARK    2  A    between atoms: C_8  and  C_9 
REMARK    3  A    between atoms: C_16  and  C_20 
REMARK    4  A    between atoms: C_17  and  O_19 
REMARK       I    between atoms: C_20  and  N_22 
REMARK    5  A    between atoms: N_22  and  C_24 
ROOT
HETATM    1  C   UNL     1       9.493  14.330  23.482  0.00  0.00     0.071 A 
HETATM    2  N   UNL     1      10.313  15.057  22.706  0.00  0.00    -0.178 NA
HETATM    3  N   UNL     1      10.894  14.150  21.904  0.00  0.00    -0.277 N 
HETATM    4  H   UNL     1      11.569  14.475  21.221  0.00  0.00     0.189 HD
HETATM    5  C   UNL     1       9.548  12.946  23.146  0.00  0.00     0.020 A 
HETATM    6  C   UNL     1      10.534  12.857  22.172  0.00  0.00     0.065 A 
HETATM    7  C   UNL     1       8.920  11.769  23.597  0.00  0.00     0.035 C 
HETATM    8  C   UNL     1       9.346  10.530  23.085  0.00  0.00     0.066 C 
HETATM    9  C   UNL     1      10.446  10.483  22.213  0.00  0.00     0.083 C 
HETATM   10  C   UNL     1      11.018  11.642  21.683  0.00  0.00     0.069 C 
ENDROOT
BRANCH   8  11
HETATM   11  C   UNL     1       8.679   9.267  23.515  0.00  0.00     0.260 C 
HETATM   12  O   UNL     1       9.397   8.479  24.139  0.00  0.00    -0.267 OA
HETATM   13  N   UNL     1       7.305   9.051  23.277  0.00  0.00    -0.318 N 
HETATM   14  C   UNL     1       6.659   7.959  24.006  0.00  0.00     0.159 C 
BRANCH  13  15
HETATM   15  C   UNL     1       6.524   9.690  22.254  0.00  0.00     0.039 A 
HETATM   16  C   UNL     1       5.726  10.800  22.550  0.00  0.00     0.032 A 
HETATM   17  C   UNL     1       4.922  11.398  21.574  0.00  0.00     0.042 A 
HETATM   18  C   UNL     1       4.922  10.903  20.275  0.00  0.00     0.102 A 
HETATM   19  C   UNL     1       5.736   9.823  19.946  0.00  0.00     0.104 A 
HETATM   20  O   UNL     1       4.102  11.542  19.383  0.00  0.00    -0.346 OA
HETATM   21  C   UNL     1       6.555   9.235  20.921  0.00  0.00     0.069 A 
HETATM   22  O   UNL     1       5.784   9.282  18.683  0.00  0.00    -0.346 OA
HETATM   23  C   UNL     1       4.653   9.688  17.897  0.00  0.00     0.202 C 
HETATM   24  C   UNL     1       4.404  11.183  18.029  0.00  0.00     0.202 C 
ENDBRANCH  13  15
ENDBRANCH   8  11
BRANCH   9  25
HETATM   25  O   UNL     1      11.058   9.309  21.858  0.00  0.00    -0.360 OA
HETATM   26  H   UNL     1      11.039   8.729  22.651  0.00  0.00     0.217 HD
ENDBRANCH   9  25
BRANCH   1  27
HETATM   27  C   UNL     1       8.769  14.952  24.635  0.00  0.00     0.100 C 
BRANCH  27  28
HETATM   28  C   UNL     1       7.274  14.855  24.437  0.00  0.00    -0.052 A 
HETATM   29  C   UNL     1       6.458  13.923  25.094  0.00  0.00     0.014 A 
HETATM   30  C   UNL     1       5.098  13.808  24.777  0.00  0.00    -0.061 A 
HETATM   31  C   UNL     1       4.299  12.649  25.292  0.00  0.00     0.048 C 
HETATM   32  C   UNL     1       4.521  14.715  23.882  0.00  0.00     0.007 A 
HETATM   33  C   UNL     1       5.296  15.708  23.293  0.00  0.00     0.001 A 
HETATM   34  C   UNL     1       6.664  15.771  23.561  0.00  0.00     0.007 A 
ENDBRANCH  27  28
ENDBRANCH   1  27
TORSDOF 5
ENDMDL
MODEL 2
REMARK VINA RESULT:    -8.772      2.414      6.102
REMARK INTER + INTRA:         -13.238
REMARK INTER:                 -11.436
REMARK INTRA:                  -1.802
REMARK UNBOUND:                -2.159
REMARK  5 active torsions:
REMARK  status: ('A' for Active; 'I' for Inactive)
REMARK    1  A    between atoms: C_7  and  C_8 
REMARK    2  A    between atoms: C_8  and  C_9 
REMARK    3  A    between atoms: C_16  and  C_20 
REMARK    4  A    between atoms: C_17  and  O_19 
REMARK       I    between atoms: C_20  and  N_22 
REMARK    5  A    between atoms: N_22  and  C_24 
ROOT
HETATM    1  C   UNL     1       3.074  11.711  23.073  0.00  0.00     0.071 A 
HETATM    2  N   UNL     1       2.520  10.784  23.872  0.00  0.00    -0.178 NA
HETATM    3  N   UNL     1       3.282   9.694  23.684  0.00  0.00    -0.277 N 
HETATM    4  H   UNL     1       3.046   8.850  24.194  0.00  0.00     0.189 HD
HETATM    5  C   UNL     1       4.212  11.196  22.387  0.00  0.00     0.020 A 
HETATM    6  C   UNL     1       4.265   9.855  22.746  0.00  0.00     0.065 A 
HETATM    7  C   UNL     1       5.155  11.699  21.470  0.00  0.00     0.035 C 
HETATM    8  C   UNL     1       6.092  10.817  20.904  0.00  0.00     0.066 C 
HETATM    9  C   UNL     1       6.010   9.444  21.186  0.00  0.00     0.083 C 
HETATM   10  C   UNL     1       5.146   8.943  22.163  0.00  0.00     0.069 C 
ENDROOT
BRANCH   8  11
HETATM   11  C   UNL     1       7.126  11.323  19.955  0.00  0.00     0.260 C 
HETATM   12  O   UNL     1       6.917  11.071  18.764  0.00  0.00    -0.267 OA
HETATM   13  N   UNL     1       8.216  12.097  20.409  0.00  0.00    -0.318 N 
HETATM   14  C   UNL     1       8.991  12.824  19.403  0.00  0.00     0.159 C 
BRANCH  13  15
HETATM   15  C   UNL     1       8.741  12.095  21.746  0.00  0.00     0.039 A 
HETATM   16  C   UNL     1       8.927  10.895  22.441  0.00  0.00     0.032 A 
HETATM   17  C   UNL     1       9.387  10.883  23.762  0.00  0.00     0.042 A 
HETATM   18  C   UNL     1       9.691  12.079  24.402  0.00  0.00     0.102 A 
HETATM   19  C   UNL     1       9.551  13.284  23.720  0.00  0.00     0.104 A 
HETATM   20  O   UNL     1      10.130  11.980  25.696  0.00  0.00    -0.346 OA
HETATM   21  C   UNL     1       9.106  13.294  22.390  0.00  0.00     0.069 A 
HETATM   22  O   UNL     1       9.832  14.502  24.292  0.00  0.00    -0.346 OA
HETATM   23  C   UNL     1       9.892  14.407  25.723  0.00  0.00     0.202 C 
HETATM   24  C   UNL     1      10.716  13.203  26.155  0.00  0.00     0.202 C 
ENDBRANCH  13  15
ENDBRANCH   8  11
BRANCH   9  25
HETATM   25  O   UNL     1       6.732   8.503  20.500  0.00  0.00    -0.360 OA
HETATM   26  H   UNL     1       7.666   8.591  20.795  0.00  0.00     0.217 HD
ENDBRANCH   9  25
BRANCH   1  27
HETATM   27  C   UNL     1       2.419  13.042  22.866  0.00  0.00     0.100 C 
BRANCH  27  28
HETATM   28  C   UNL     1       3.231  14.138  23.517  0.00  0.00    -0.052 A 
HETATM   29  C   UNL     1       4.429  14.641  22.988  0.00  0.00     0.014 A 
HETATM   30  C   UNL     1       5.193  15.575  23.700  0.00  0.00    -0.061 A 
HETATM   31  C   UNL     1       6.583  15.910  23.252  0.00  0.00     0.048 C 
HETATM   32  C   UNL     1       4.696  16.102  24.897  0.00  0.00     0.007 A 
HETATM   33  C   UNL     1       3.463  15.685  25.388  0.00  0.00     0.001 A 
HETATM   34  C   UNL     1       2.742  14.703  24.708  0.00  0.00     0.007 A 
ENDBRANCH  27  28
ENDBRANCH   1  27
TORSDOF 5
ENDMDL
MODEL 3
REMARK VINA RESULT:    -8.345      1.716      2.624
REMARK INTER + INTRA:         -12.699
REMARK INTER:                 -11.341
REMARK INTRA:                  -1.358
REMARK UNBOUND:                -2.159
REMARK  5 active torsions:
REMARK  status: ('A' for Active; 'I' for Inactive)
REMARK    1  A    between atoms: C_7  and  C_8 
REMARK    2  A    between atoms: C_8  and  C_9 
REMARK    3  A    between atoms: C_16  and  C_20 
REMARK    4  A    between atoms: C_17  and  O_19 
REMARK       I    between atoms: C_20  and  N_22 
REMARK    5  A    between atoms: N_22  and  C_24 
ROOT
HETATM    1  C   UNL     1       9.751  13.679  21.942  0.00  0.00     0.071 A 
HETATM    2  N   UNL     1      10.997  13.370  21.547  0.00  0.00    -0.178 NA
HETATM    3  N   UNL     1      11.049  12.032  21.647  0.00  0.00    -0.277 N 
HETATM    4  H   UNL     1      11.915  11.566  21.399  0.00  0.00     0.189 HD
HETATM    5  C   UNL     1       9.005  12.512  22.277  0.00  0.00     0.020 A 
HETATM    6  C   UNL     1       9.911  11.466  22.153  0.00  0.00     0.065 A 
HETATM    7  C   UNL     1       7.697  12.238  22.720  0.00  0.00     0.035 C 
HETATM    8  C   UNL     1       7.359  10.920  23.075  0.00  0.00     0.066 C 
HETATM    9  C   UNL     1       8.352   9.927  23.074  0.00  0.00     0.083 C 
HETATM   10  C   UNL     1       9.626  10.158  22.549  0.00  0.00     0.069 C 
ENDROOT
BRANCH   8  11
HETATM   11  C   UNL     1       5.973  10.590  23.516  0.00  0.00     0.260 C 
HETATM   12  O   UNL     1       5.815  10.504  24.738  0.00  0.00    -0.267 OA
HETATM   13  N   UNL     1       4.921  10.466  22.583  0.00  0.00    -0.318 N 
HETATM   14  C   UNL     1       3.554  10.470  23.104  0.00  0.00     0.159 C 
BRANCH  13  15
HETATM   15  C   UNL     1       5.076  10.156  21.188  0.00  0.00     0.039 A 
HETATM   16  C   UNL     1       5.068  11.170  20.225  0.00  0.00     0.032 A 
HETATM   17  C   UNL     1       5.164  10.877  18.860  0.00  0.00     0.042 A 
HETATM   18  C   UNL     1       5.293   9.558  18.441  0.00  0.00     0.102 A 
HETATM   19  C   UNL     1       5.342   8.534  19.381  0.00  0.00     0.104 A 
HETATM   20  O   UNL     1       5.376   9.358  17.088  0.00  0.00    -0.346 OA
HETATM   21  C   UNL     1       5.263   8.831  20.751  0.00  0.00     0.069 A 
HETATM   22  O   UNL     1       5.467   7.209  19.037  0.00  0.00    -0.346 OA
HETATM   23  C   UNL     1       5.148   6.996  17.654  0.00  0.00     0.202 C 
HETATM   24  C   UNL     1       5.825   8.035  16.771  0.00  0.00     0.202 C 
ENDBRANCH  13  15
ENDBRANCH   8  11
BRANCH   9  25
HETATM   25  O   UNL     1       8.157   8.686  23.623  0.00  0.00    -0.360 OA
HETATM   26  H   UNL     1       7.188   8.518  23.607  0.00  0.00     0.217 HD
ENDBRANCH   9  25
BRANCH   1  27
HETATM   27  C   UNL     1       9.332  15.104  22.130  0.00  0.00     0.100 C 
BRANCH  27  28
HETATM   28  C   UNL     1       8.269  15.207  23.199  0.00  0.00    -0.052 A 
HETATM   29  C   UNL     1       6.926  15.517  22.937  0.00  0.00     0.014 A 
HETATM   30  C   UNL     1       6.016  15.712  23.984  0.00  0.00    -0.061 A 
HETATM   31  C   UNL     1       4.661  16.289  23.707  0.00  0.00     0.048 C 
HETATM   32  C   UNL     1       6.421  15.476  25.302  0.00  0.00     0.007 A 
HETATM   33  C   UNL     1       7.725  15.073  25.572  0.00  0.00     0.001 A 
HETATM   34  C   UNL     1       8.643  14.950  24.530  0.00  0.00     0.007 A 
ENDBRANCH  27  28
ENDBRANCH   1  27
TORSDOF 5
ENDMDL
MODEL 4
REMARK VINA RESULT:    -8.251      2.556      3.919
REMARK INTER + INTRA:         -12.580
REMARK INTER:                 -10.581
REMARK INTRA:                  -1.999
REMARK UNBOUND:                -2.159
REMARK  5 active torsions:
REMARK  status: ('A' for Active; 'I' for Inactive)
REMARK    1  A    between atoms: C_7  and  C_8 
REMARK    2  A    between atoms: C_8  and  C_9 
REMARK    3  A    between atoms: C_16  and  C_20 
REMARK    4  A    between atoms: C_17  and  O_19 
REMARK       I    between atoms: C_20  and  N_22 
REMARK    5  A    between atoms: N_22  and  C_24 
ROOT
HETATM    1  C   UNL     1       7.308  15.133  23.361  0.00  0.00     0.071 A 
HETATM    2  N   UNL     1       8.184  15.321  24.362  0.00  0.00    -0.178 NA
HETATM    3  N   UNL     1       8.922  14.198  24.365  0.00  0.00    -0.277 N 
HETATM    4  H   UNL     1       9.661  14.112  25.054  0.00  0.00     0.189 HD
HETATM    5  C   UNL     1       7.514  13.879  22.716  0.00  0.00     0.020 A 
HETATM    6  C   UNL     1       8.517  13.262  23.452  0.00  0.00     0.065 A 
HETATM    7  C   UNL     1       6.927  13.185  21.640  0.00  0.00     0.035 C 
HETATM    8  C   UNL     1       7.339  11.867  21.373  0.00  0.00     0.066 C 
HETATM    9  C   UNL     1       8.249  11.238  22.237  0.00  0.00     0.083 C 
HETATM   10  C   UNL     1       8.910  11.938  23.249  0.00  0.00     0.069 C 
ENDROOT
BRANCH   8  11
HETATM   11  C   UNL     1       6.763  11.117  20.220  0.00  0.00     0.260 C 
HETATM   12  O   UNL     1       7.166  11.470  19.107  0.00  0.00    -0.267 OA
HETATM   13  N   UNL     1       5.879  10.034  20.423  0.00  0.00    -0.318 N 
HETATM   14  C   UNL     1       5.621   9.153  19.284  0.00  0.00     0.159 C 
BRANCH  13  15
HETATM   15  C   UNL     1       5.073   9.824  21.593  0.00  0.00     0.039 A 
HETATM   16  C   UNL     1       4.227  10.831  22.070  0.00  0.00     0.032 A 
HETATM   17  C   UNL     1       3.477  10.657  23.239  0.00  0.00     0.042 A 
HETATM   18  C   UNL     1       3.547   9.457  23.936  0.00  0.00     0.102 A 
HETATM   19  C   UNL     1       4.351   8.425  23.462  0.00  0.00     0.104 A 
HETATM   20  O   UNL     1       2.786   9.371  25.073  0.00  0.00    -0.346 OA
HETATM   21  C   UNL     1       5.090   8.595  22.280  0.00  0.00     0.069 A 
HETATM   22  O   UNL     1       4.469   7.215  24.101  0.00  0.00    -0.346 OA
HETATM   23  C   UNL     1       4.003   7.293  25.457  0.00  0.00     0.202 C 
HETATM   24  C   UNL     1       2.669   8.020  25.535  0.00  0.00     0.202 C 
ENDBRANCH  13  15
ENDBRANCH   8  11
BRANCH   9  25
HETATM   25  O   UNL     1       8.518   9.895  22.178  0.00  0.00    -0.360 OA
HETATM   26  H   UNL     1       9.494   9.805  22.098  0.00  0.00     0.217 HD
ENDBRANCH   9  25
BRANCH   1  27
HETATM   27  C   UNL     1       6.188  16.098  23.125  0.00  0.00     0.100 C 
BRANCH  27  28
HETATM   28  C   UNL     1       4.888  15.543  23.661  0.00  0.00    -0.052 A 
HETATM   29  C   UNL     1       4.025  14.723  22.920  0.00  0.00     0.014 A 
HETATM   30  C   UNL     1       2.780  14.338  23.434  0.00  0.00    -0.061 A 
HETATM   31  C   UNL     1       1.767  13.683  22.545  0.00  0.00     0.048 C 
HETATM   32  C   UNL     1       2.445  14.676  24.750  0.00  0.00     0.007 A 
HETATM   33  C   UNL     1       3.332  15.408  25.533  0.00  0.00     0.001 A 
HETATM   34  C   UNL     1       4.539  15.847  24.989  0.00  0.00     0.007 A 
ENDBRANCH  27  28
ENDBRANCH   1  27
TORSDOF 5
ENDMDL
MODEL 5
REMARK VINA RESULT:    -8.158      2.217      3.419
REMARK INTER + INTRA:         -12.464
REMARK INTER:                 -10.615
REMARK INTRA:                  -1.849
REMARK UNBOUND:                -2.159
REMARK  5 active torsions:
REMARK  status: ('A' for Active; 'I' for Inactive)
REMARK    1  A    between atoms: C_7  and  C_8 
REMARK    2  A    between atoms: C_8  and  C_9 
REMARK    3  A    between atoms: C_16  and  C_20 
REMARK    4  A    between atoms: C_17  and  O_19 
REMARK       I    between atoms: C_20  and  N_22 
REMARK    5  A    between atoms: N_22  and  C_24 
ROOT
HETATM    1  C   UNL     1       9.975  11.635  24.187  0.00  0.00     0.071 A 
HETATM    2  N   UNL     1      11.058  10.886  23.919  0.00  0.00    -0.178 NA
HETATM    3  N   UNL     1      10.553   9.680  23.613  0.00  0.00    -0.277 N 
HETATM    4  H   UNL     1      11.199   8.936  23.374  0.00  0.00     0.189 HD
HETATM    5  C   UNL     1       8.772  10.889  24.028  0.00  0.00     0.020 A 
HETATM    6  C   UNL     1       9.192   9.598  23.736  0.00  0.00     0.065 A 
HETATM    7  C   UNL     1       7.394  11.150  24.154  0.00  0.00     0.035 C 
HETATM    8  C   UNL     1       6.484  10.085  24.033  0.00  0.00     0.066 C 
HETATM    9  C   UNL     1       6.968   8.775  23.886  0.00  0.00     0.083 C 
HETATM   10  C   UNL     1       8.322   8.509  23.664  0.00  0.00     0.069 C 
ENDROOT
BRANCH   8  11
HETATM   11  C   UNL     1       5.016  10.332  24.127  0.00  0.00     0.260 C 
HETATM   12  O   UNL     1       4.540  10.249  25.264  0.00  0.00    -0.267 OA
HETATM   13  N   UNL     1       4.266  10.708  22.993  0.00  0.00    -0.318 N 
HETATM   14  C   UNL     1       2.925  11.247  23.220  0.00  0.00     0.159 C 
BRANCH  13  15
HETATM   15  C   UNL     1       4.628  10.444  21.628  0.00  0.00     0.039 A 
HETATM   16  C   UNL     1       4.941  11.491  20.754  0.00  0.00     0.032 A 
HETATM   17  C   UNL     1       5.244  11.250  19.410  0.00  0.00     0.042 A 
HETATM   18  C   UNL     1       5.260   9.948  18.924  0.00  0.00     0.102 A 
HETATM   19  C   UNL     1       4.990   8.886  19.781  0.00  0.00     0.104 A 
HETATM   20  O   UNL     1       5.561   9.800  17.595  0.00  0.00    -0.346 OA
HETATM   21  C   UNL     1       4.703   9.127  21.134  0.00  0.00     0.069 A 
HETATM   22  O   UNL     1       4.987   7.575  19.369  0.00  0.00    -0.346 OA
HETATM   23  C   UNL     1       4.901   7.477  17.939  0.00  0.00     0.202 C 
HETATM   24  C   UNL     1       5.868   8.440  17.267  0.00  0.00     0.202 C 
ENDBRANCH  13  15
ENDBRANCH   8  11
BRANCH   9  25
HETATM   25  O   UNL     1       6.161   7.671  23.993  0.00  0.00    -0.360 OA
HETATM   26  H   UNL     1       6.569   6.967  23.441  0.00  0.00     0.217 HD
ENDBRANCH   9  25
BRANCH   1  27
HETATM   27  C   UNL     1      10.113  13.023  24.733  0.00  0.00     0.100 C 
BRANCH  27  28
HETATM   28  C   UNL     1       9.384  14.013  23.852  0.00  0.00    -0.052 A 
HETATM   29  C   UNL     1       8.135  14.566  24.169  0.00  0.00     0.014 A 
HETATM   30  C   UNL     1       7.460  15.386  23.255  0.00  0.00    -0.061 A 
HETATM   31  C   UNL     1       6.028  15.760  23.493  0.00  0.00     0.048 C 
HETATM   32  C   UNL     1       8.093  15.756  22.064  0.00  0.00     0.007 A 
HETATM   33  C   UNL     1       9.373  15.294  21.778  0.00  0.00     0.001 A 
HETATM   34  C   UNL     1      10.009  14.420  22.661  0.00  0.00     0.007 A 
ENDBRANCH  27  28
ENDBRANCH   1  27
TORSDOF 5
ENDMDL
MODEL 6
REMARK VINA RESULT:    -8.094      1.008      1.526
REMARK INTER + INTRA:         -12.382
REMARK INTER:                 -10.311
REMARK INTRA:                  -2.070
REMARK UNBOUND:                -2.159
REMARK  5 active torsions:
REMARK  status: ('A' for Active; 'I' for Inactive)
REMARK    1  A    between atoms: C_7  and  C_8 
REMARK    2  A    between atoms: C_8  and  C_9 
REMARK    3  A    between atoms: C_16  and  C_20 
REMARK    4  A    between atoms: C_17  and  O_19 
REMARK       I    between atoms: C_20  and  N_22 
REMARK    5  A    between atoms: N_22  and  C_24 
ROOT
HETATM    1  C   UNL     1       8.395  15.028  23.215  0.00  0.00     0.071 A 
HETATM    2  N   UNL     1       9.081  15.959  22.532  0.00  0.00    -0.178 NA
HETATM    3  N   UNL     1       9.844  15.247  21.687  0.00  0.00    -0.277 N 
HETATM    4  H   UNL     1      10.462  15.750  21.059  0.00  0.00     0.189 HD
HETATM    5  C   UNL     1       8.722  13.712  22.776  0.00  0.00     0.020 A 
HETATM    6  C   UNL     1       9.731  13.892  21.839  0.00  0.00     0.065 A 
HETATM    7  C   UNL     1       8.319  12.404  23.108  0.00  0.00     0.035 C 
HETATM    8  C   UNL     1       8.986  11.315  22.519  0.00  0.00     0.066 C 
HETATM    9  C   UNL     1      10.096  11.549  21.692  0.00  0.00     0.083 C 
HETATM   10  C   UNL     1      10.450  12.835  21.277  0.00  0.00     0.069 C 
ENDROOT
BRANCH   8  11
HETATM   11  C   UNL     1       8.561   9.918  22.822  0.00  0.00     0.260 C 
HETATM   12  O   UNL     1       9.409   9.222  23.392  0.00  0.00    -0.267 OA
HETATM   13  N   UNL     1       7.252   9.474  22.535  0.00  0.00    -0.318 N 
HETATM   14  C   UNL     1       6.815   8.221  23.151  0.00  0.00     0.159 C 
BRANCH  13  15
HETATM   15  C   UNL     1       6.374  10.048  21.553  0.00  0.00     0.039 A 
HETATM   16  C   UNL     1       5.470  11.057  21.903  0.00  0.00     0.032 A 
HETATM   17  C   UNL     1       4.574  11.586  20.968  0.00  0.00     0.042 A 
HETATM   18  C   UNL     1       4.586  11.125  19.657  0.00  0.00     0.102 A 
HETATM   19  C   UNL     1       5.501  10.149  19.274  0.00  0.00     0.104 A 
HETATM   20  O   UNL     1       3.672  11.691  18.807  0.00  0.00    -0.346 OA
HETATM   21  C   UNL     1       6.411   9.631  20.208  0.00  0.00     0.069 A 
HETATM   22  O   UNL     1       5.567   9.647  17.996  0.00  0.00    -0.346 OA
HETATM   23  C   UNL     1       4.373   9.945  17.255  0.00  0.00     0.202 C 
HETATM   24  C   UNL     1       3.968  11.400  17.436  0.00  0.00     0.202 C 
ENDBRANCH  13  15
ENDBRANCH   8  11
BRANCH   9  25
HETATM   25  O   UNL     1      10.931  10.545  21.273  0.00  0.00    -0.360 OA
HETATM   26  H   UNL     1      11.835  10.927  21.232  0.00  0.00     0.217 HD
ENDBRANCH   9  25
BRANCH   1  27
HETATM   27  C   UNL     1       7.536  15.404  24.383  0.00  0.00     0.100 C 
BRANCH  27  28
HETATM   28  C   UNL     1       6.222  14.659  24.335  0.00  0.00    -0.052 A 
HETATM   29  C   UNL     1       5.141  15.034  23.524  0.00  0.00     0.014 A 
HETATM   30  C   UNL     1       3.910  14.371  23.614  0.00  0.00    -0.061 A 
HETATM   31  C   UNL     1       2.698  14.936  22.938  0.00  0.00     0.048 C 
HETATM   32  C   UNL     1       3.794  13.244  24.435  0.00  0.00     0.007 A 
HETATM   33  C   UNL     1       4.885  12.800  25.173  0.00  0.00     0.001 A 
HETATM   34  C   UNL     1       6.086  13.508  25.132  0.00  0.00     0.007 A 
ENDBRANCH  27  28
ENDBRANCH   1  27
TORSDOF 5
ENDMDL
MODEL 7
REMARK VINA RESULT:    -7.980      2.546      4.470
REMARK INTER + INTRA:         -12.238
REMARK INTER:                 -10.944
REMARK INTRA:                  -1.295
REMARK UNBOUND:                -2.159
REMARK  5 active torsions:
REMARK  status: ('A' for Active; 'I' for Inactive)
REMARK    1  A    between atoms: C_7  and  C_8 
REMARK    2  A    between atoms: C_8  and  C_9 
REMARK    3  A    between atoms: C_16  and  C_20 
REMARK    4  A    between atoms: C_17  and  O_19 
REMARK       I    between atoms: C_20  and  N_22 
REMARK    5  A    between atoms: N_22  and  C_24 
ROOT
HETATM    1  C   UNL     1       3.978  14.609  23.696  0.00  0.00     0.071 A 
HETATM    2  N   UNL     1       2.680  14.849  23.941  0.00  0.00    -0.178 NA
HETATM    3  N   UNL     1       2.146  13.626  24.096  0.00  0.00    -0.277 N 
HETATM    4  H   UNL     1       1.153  13.557  24.291  0.00  0.00     0.189 HD
HETATM    5  C   UNL     1       4.265  13.214  23.717  0.00  0.00     0.020 A 
HETATM    6  C   UNL     1       3.031  12.602  23.896  0.00  0.00     0.065 A 
HETATM    7  C   UNL     1       5.411  12.412  23.548  0.00  0.00     0.035 C 
HETATM    8  C   UNL     1       5.265  11.014  23.514  0.00  0.00     0.066 C 
HETATM    9  C   UNL     1       3.980  10.451  23.551  0.00  0.00     0.083 C 
HETATM   10  C   UNL     1       2.844  11.221  23.813  0.00  0.00     0.069 C 
ENDROOT
BRANCH   8  11
HETATM   11  C   UNL     1       6.462  10.135  23.371  0.00  0.00     0.260 C 
HETATM   12  O   UNL     1       7.189  10.069  24.367  0.00  0.00    -0.267 OA
HETATM   13  N   UNL     1       6.680   9.386  22.194  0.00  0.00    -0.318 N 
HETATM   14  C   UNL     1       7.674   8.315  22.252  0.00  0.00     0.159 C 
BRANCH  13  15
HETATM   15  C   UNL     1       6.144   9.695  20.897  0.00  0.00     0.039 A 
HETATM   16  C   UNL     1       6.368  10.945  20.309  0.00  0.00     0.032 A 
HETATM   17  C   UNL     1       5.808  11.276  19.071  0.00  0.00     0.042 A 
HETATM   18  C   UNL     1       5.030  10.348  18.390  0.00  0.00     0.102 A 
HETATM   19  C   UNL     1       4.823   9.084  18.935  0.00  0.00     0.104 A 
HETATM   20  O   UNL     1       4.514  10.754  17.187  0.00  0.00    -0.346 OA
HETATM   21  C   UNL     1       5.400   8.747  20.170  0.00  0.00     0.069 A 
HETATM   22  O   UNL     1       4.064   8.119  18.318  0.00  0.00    -0.346 OA
HETATM   23  C   UNL     1       3.227   8.685  17.298  0.00  0.00     0.202 C 
HETATM   24  C   UNL     1       4.012   9.652  16.423  0.00  0.00     0.202 C 
ENDBRANCH  13  15
ENDBRANCH   8  11
BRANCH   9  25
HETATM   25  O   UNL     1       3.745   9.125  23.292  0.00  0.00    -0.360 OA
HETATM   26  H   UNL     1       4.046   8.624  24.083  0.00  0.00     0.217 HD
ENDBRANCH   9  25
BRANCH   1  27
HETATM   27  C   UNL     1       4.906  15.717  23.302  0.00  0.00     0.100 C 
BRANCH  27  28
HETATM   28  C   UNL     1       6.288  15.476  23.866  0.00  0.00    -0.052 A 
HETATM   29  C   UNL     1       7.450  15.418  23.084  0.00  0.00     0.014 A 
HETATM   30  C   UNL     1       8.684  15.075  23.653  0.00  0.00    -0.061 A 
HETATM   31  C   UNL     1       9.859  14.768  22.775  0.00  0.00     0.048 C 
HETATM   32  C   UNL     1       8.779  14.905  25.038  0.00  0.00     0.007 A 
HETATM   33  C   UNL     1       7.653  15.053  25.841  0.00  0.00     0.001 A 
HETATM   34  C   UNL     1       6.416  15.326  25.258  0.00  0.00     0.007 A 
ENDBRANCH  27  28
ENDBRANCH   1  27
TORSDOF 5
ENDMDL
MODEL 8
REMARK VINA RESULT:    -7.920      2.392      5.215
REMARK INTER + INTRA:         -12.162
REMARK INTER:                 -10.003
REMARK INTRA:                  -2.159
REMARK UNBOUND:                -2.159
REMARK  5 active torsions:
REMARK  status: ('A' for Active; 'I' for Inactive)
REMARK    1  A    between atoms: C_7  and  C_8 
REMARK    2  A    between atoms: C_8  and  C_9 
REMARK    3  A    between atoms: C_16  and  C_20 
REMARK    4  A    between atoms: C_17  and  O_19 
REMARK       I    between atoms: C_20  and  N_22 
REMARK    5  A    between atoms: N_22  and  C_24 
ROOT
HETATM    1  C   UNL     1       4.094  11.706  24.277  0.00  0.00     0.071 A 
HETATM    2  N   UNL     1       2.914  11.526  23.661  0.00  0.00    -0.178 NA
HETATM    3  N   UNL     1       3.165  10.574  22.748  0.00  0.00    -0.277 N 
HETATM    4  H   UNL     1       2.405  10.271  22.149  0.00  0.00     0.189 HD
HETATM    5  C   UNL     1       5.095  10.837  23.753  0.00  0.00     0.020 A 
HETATM    6  C   UNL     1       4.473  10.176  22.702  0.00  0.00     0.065 A 
HETATM    7  C   UNL     1       6.456  10.586  24.014  0.00  0.00     0.035 C 
HETATM    8  C   UNL     1       7.161   9.710  23.169  0.00  0.00     0.066 C 
HETATM    9  C   UNL     1       6.526   9.182  22.034  0.00  0.00     0.083 C 
HETATM   10  C   UNL     1       5.156   9.344  21.812  0.00  0.00     0.069 C 
ENDROOT
BRANCH   8  11
HETATM   11  C   UNL     1       8.594   9.396  23.438  0.00  0.00     0.260 C 
HETATM   12  O   UNL     1       8.792   8.396  24.136  0.00  0.00    -0.267 OA
HETATM   13  N   UNL     1       9.629  10.161  22.859  0.00  0.00    -0.318 N 
HETATM   14  C   UNL     1      10.981   9.603  22.897  0.00  0.00     0.159 C 
BRANCH  13  15
HETATM   15  C   UNL     1       9.506  11.515  22.395  0.00  0.00     0.039 A 
HETATM   16  C   UNL     1       8.656  11.833  21.330  0.00  0.00     0.032 A 
HETATM   17  C   UNL     1       8.568  13.138  20.836  0.00  0.00     0.042 A 
HETATM   18  C   UNL     1       9.317  14.154  21.417  0.00  0.00     0.102 A 
HETATM   19  C   UNL     1      10.142  13.871  22.502  0.00  0.00     0.104 A 
HETATM   20  O   UNL     1       9.177  15.402  20.869  0.00  0.00    -0.346 OA
HETATM   21  C   UNL     1      10.217  12.564  23.008  0.00  0.00     0.069 A 
HETATM   22  O   UNL     1      10.912  14.825  23.124  0.00  0.00    -0.346 OA
HETATM   23  C   UNL     1      11.058  15.994  22.304  0.00  0.00     0.202 C 
HETATM   24  C   UNL     1       9.721  16.420  21.717  0.00  0.00     0.202 C 
ENDBRANCH  13  15
ENDBRANCH   8  11
BRANCH   9  25
HETATM   25  O   UNL     1       7.207   8.515  21.048  0.00  0.00    -0.360 OA
HETATM   26  H   UNL     1       6.945   7.570  21.113  0.00  0.00     0.217 HD
ENDBRANCH   9  25
BRANCH   1  27
HETATM   27  C   UNL     1       4.286  12.812  25.269  0.00  0.00     0.100 C 
BRANCH  27  28
HETATM   28  C   UNL     1       5.345  13.777  24.787  0.00  0.00    -0.052 A 
HETATM   29  C   UNL     1       6.629  13.867  25.343  0.00  0.00     0.014 A 
HETATM   30  C   UNL     1       7.524  14.863  24.928  0.00  0.00    -0.061 A 
HETATM   31  C   UNL     1       8.785  15.111  25.699  0.00  0.00     0.048 C 
HETATM   32  C   UNL     1       7.176  15.701  23.864  0.00  0.00     0.007 A 
HETATM   33  C   UNL     1       5.942  15.562  23.237  0.00  0.00     0.001 A 
HETATM   34  C   UNL     1       5.030  14.614  23.702  0.00  0.00     0.007 A 
ENDBRANCH  27  28
ENDBRANCH   1  27
TORSDOF 5
ENDMDL
MODEL 9
REMARK VINA RESULT:    -7.834      2.714      4.788
REMARK INTER + INTRA:         -12.054
REMARK INTER:                  -9.633
REMARK INTRA:                  -2.421
REMARK UNBOUND:                -2.159
REMARK  5 active torsions:
REMARK  status: ('A' for Active; 'I' for Inactive)
REMARK    1  A    between atoms: C_7  and  C_8 
REMARK    2  A    between atoms: C_8  and  C_9 
REMARK    3  A    between atoms: C_16  and  C_20 
REMARK    4  A    between atoms: C_17  and  O_19 
REMARK       I    between atoms: C_20  and  N_22 
REMARK    5  A    between atoms: N_22  and  C_24 
ROOT
HETATM    1  C   UNL     1       7.980  11.724  21.240  0.00  0.00     0.071 A 
HETATM    2  N   UNL     1       8.103  12.011  19.934  0.00  0.00    -0.178 NA
HETATM    3  N   UNL     1       7.175  11.242  19.342  0.00  0.00    -0.277 N 
HETATM    4  H   UNL     1       7.085  11.290  18.333  0.00  0.00     0.189 HD
HETATM    5  C   UNL     1       6.944  10.772  21.470  0.00  0.00     0.020 A 
HETATM    6  C   UNL     1       6.500  10.419  20.202  0.00  0.00     0.065 A 
HETATM    7  C   UNL     1       6.382  10.139  22.595  0.00  0.00     0.035 C 
HETATM    8  C   UNL     1       5.424   9.128  22.401  0.00  0.00     0.066 C 
HETATM    9  C   UNL     1       5.119   8.705  21.097  0.00  0.00     0.083 C 
HETATM   10  C   UNL     1       5.593   9.384  19.971  0.00  0.00     0.069 C 
ENDROOT
BRANCH   8  11
HETATM   11  C   UNL     1       4.785   8.460  23.571  0.00  0.00     0.260 C 
HETATM   12  O   UNL     1       4.820   7.225  23.558  0.00  0.00    -0.267 OA
HETATM   13  N   UNL     1       4.252   9.214  24.639  0.00  0.00    -0.318 N 
HETATM   14  C   UNL     1       3.947   8.502  25.880  0.00  0.00     0.159 C 
BRANCH  13  15
HETATM   15  C   UNL     1       3.817  10.581  24.560  0.00  0.00     0.039 A 
HETATM   16  C   UNL     1       4.577  11.609  25.129  0.00  0.00     0.032 A 
HETATM   17  C   UNL     1       4.138  12.937  25.104  0.00  0.00     0.042 A 
HETATM   18  C   UNL     1       2.935  13.259  24.487  0.00  0.00     0.102 A 
HETATM   19  C   UNL     1       2.179  12.261  23.880  0.00  0.00     0.104 A 
HETATM   20  O   UNL     1       2.575  14.581  24.512  0.00  0.00    -0.346 OA
HETATM   21  C   UNL     1       2.629  10.932  23.890  0.00  0.00     0.069 A 
HETATM   22  O   UNL     1       0.981  12.508  23.253  0.00  0.00    -0.346 OA
HETATM   23  C   UNL     1       0.443  13.783  23.638  0.00  0.00     0.202 C 
HETATM   24  C   UNL     1       1.514  14.862  23.592  0.00  0.00     0.202 C 
ENDBRANCH  13  15
ENDBRANCH   8  11
BRANCH   9  25
HETATM   25  O   UNL     1       4.378   7.581  20.838  0.00  0.00    -0.360 OA
HETATM   26  H   UNL     1       3.572   7.638  21.399  0.00  0.00     0.217 HD
ENDBRANCH   9  25
BRANCH   1  27
HETATM   27  C   UNL     1       8.954  12.259  22.243  0.00  0.00     0.100 C 
BRANCH  27  28
HETATM   28  C   UNL     1       8.260  13.190  23.211  0.00  0.00    -0.052 A 
HETATM   29  C   UNL     1       7.210  14.048  22.852  0.00  0.00     0.014 A 
HETATM   30  C   UNL     1       6.689  14.969  23.770  0.00  0.00    -0.061 A 
HETATM   31  C   UNL     1       5.754  16.045  23.308  0.00  0.00     0.048 C 
HETATM   32  C   UNL     1       7.139  14.952  25.094  0.00  0.00     0.007 A 
HETATM   33  C   UNL     1       8.113  14.042  25.491  0.00  0.00     0.001 A 
HETATM   34  C   UNL     1       8.677  13.175  24.554  0.00  0.00     0.007 A 
ENDBRANCH  27  28
ENDBRANCH   1  27
TORSDOF 5
ENDMDL
