MODEL 1
REMARK VINA RESULT:    -9.245      0.000      0.000
REMARK INTER + INTRA:         -14.020
REMARK INTER:                 -12.872
REMARK INTRA:                  -1.148
REMARK UNBOUND:                -1.262
REMARK  7 active torsions:
REMARK  status: ('A' for Active; 'I' for Inactive)
REMARK    1  A    between atoms: N_6  and  C_7 
REMARK    2  A    between atoms: C_12  and  N_13 
REMARK       I    between atoms: N_13  and  C_15 
REMARK    3  A    between atoms: C_15  and  C_17 
REMARK    4  A    between atoms: C_18  and  O_20 
REMARK    5  A    between atoms: C_24  and  C_28 
REMARK    6  A    between atoms: C_28  and  C_29 
REMARK    7  A    between atoms: C_33  and  O_35 
ROOT
HETATM    1  C   UNL     1       7.142  14.324  24.730  0.00  0.00     0.066 C 
HETATM    2  C   UNL     1       7.751  14.180  25.992  0.00  0.00     0.083 C 
HETATM    3  C   UNL     1       9.066  14.594  26.229  0.00  0.00     0.069 C 
HETATM    4  C   UNL     1       7.848  14.997  23.711  0.00  0.00     0.035 C 
HETATM    5  C   UNL     1       9.220  15.284  23.877  0.00  0.00     0.020 A 
HETATM    6  C   UNL     1       9.781  15.102  25.135  0.00  0.00     0.065 A 
HETATM    7  C   UNL     1      10.311  15.708  23.047  0.00  0.00     0.071 A 
HETATM    8  N   UNL     1      11.428  15.875  23.778  0.00  0.00    -0.178 NA
HETATM    9  N   UNL     1      11.070  15.532  25.025  0.00  0.00    -0.277 N 
HETATM   10  H   UNL     1      11.764  15.592  25.760  0.00  0.00     0.189 HD
ENDROOT
BRANCH   1  11
HETATM   11  C   UNL     1       5.777  13.716  24.516  0.00  0.00     0.260 C 
HETATM   12  N   UNL     1       4.585  14.460  24.781  0.00  0.00    -0.318 N 
HETATM   13  C   UNL     1       4.651  15.841  25.255  0.00  0.00     0.159 C 
HETATM   14  O   UNL     1       5.807  12.599  23.998  0.00  0.00    -0.267 OA
BRANCH  12  15
HETATM   15  C   UNL     1       3.262  13.905  24.524  0.00  0.00     0.037 A 
HETATM   16  C   UNL     1       2.248  14.654  23.902  0.00  0.00     0.032 A 
HETATM   17  C   UNL     1       1.001  14.102  23.551  0.00  0.00     0.031 A 
HETATM   18  C   UNL     1       0.689  12.770  23.800  0.00  0.00     0.030 A 
HETATM   19  C   UNL     1       1.661  12.049  24.504  0.00  0.00     0.031 A 
HETATM   20  C   UNL     1       2.913  12.595  24.857  0.00  0.00     0.032 A 
BRANCH  18  21
HETATM   21  N   UNL     1      -0.501  12.198  23.412  0.00  0.00    -0.377 N 
HETATM   22  C   UNL     1      -1.242  12.558  22.193  0.00  0.00     0.149 C 
HETATM   23  C   UNL     1      -2.741  12.626  22.544  0.00  0.00     0.187 C 
HETATM   24  O   UNL     1      -3.219  11.404  23.137  0.00  0.00    -0.388 OA
HETATM   25  C   UNL     1      -2.462  11.084  24.319  0.00  0.00     0.187 C 
HETATM   26  C   UNL     1      -0.972  10.930  23.994  0.00  0.00     0.149 C 
ENDBRANCH  18  21
ENDBRANCH  12  15
ENDBRANCH   1  11
BRANCH   2  27
HETATM   27  O   UNL     1       7.117  13.624  27.078  0.00  0.00    -0.360 OA
HETATM   28  H   UNL     1       7.727  13.688  27.846  0.00  0.00     0.217 HD
ENDBRANCH   2  27
BRANCH   7  29
HETATM   29  C   UNL     1      10.368  15.980  21.562  0.00  0.00     0.100 C 
BRANCH  29  30
HETATM   30  C   UNL     1      10.239  14.701  20.735  0.00  0.00    -0.050 A 
HETATM   31  C   UNL     1       9.053  14.320  20.088  0.00  0.00     0.007 A 
HETATM   32  C   UNL     1       8.967  13.122  19.376  0.00  0.00     0.003 A 
HETATM   33  C   UNL     1      10.042  12.243  19.361  0.00  0.00     0.037 A 
HETATM   34  C   UNL     1      11.214  12.547  20.050  0.00  0.00     0.068 A 
HETATM   35  C   UNL     1      11.322  13.777  20.716  0.00  0.00     0.044 A 
BRANCH  34  36
HETATM   36  O   UNL     1      12.122  11.525  20.037  0.00  0.00    -0.356 OA
HETATM   37  C   UNL     1      12.210  10.690  21.179  0.00  0.00     0.210 C 
ENDBRANCH  34  36
ENDBRANCH  29  30
ENDBRANCH   7  29
TORSDOF 7
ENDMDL
MODEL 2
REMARK VINA RESULT:    -8.966      1.181      1.773
REMARK INTER + INTRA:         -13.634
REMARK INTER:                 -12.216
REMARK INTRA:                  -1.418
REMARK UNBOUND:                -1.262
REMARK  7 active torsions:
REMARK  status: ('A' for Active; 'I' for Inactive)
REMARK    1  A    between atoms: N_6  and  C_7 
REMARK    2  A    between atoms: C_12  and  N_13 
REMARK       I    between atoms: N_13  and  C_15 
REMARK    3  A    between atoms: C_15  and  C_17 
REMARK    4  A    between atoms: C_18  and  O_20 
REMARK    5  A    between atoms: C_24  and  C_28 
REMARK    6  A    between atoms: C_28  and  C_29 
REMARK    7  A    between atoms: C_33  and  O_35 
ROOT
HETATM    1  C   UNL     1       7.713  14.945  24.912  0.00  0.00     0.066 C 
HETATM    2  C   UNL     1       8.394  14.618  26.102  0.00  0.00     0.083 C 
HETATM    3  C   UNL     1       9.790  14.659  26.188  0.00  0.00     0.069 C 
HETATM    4  C   UNL     1       8.459  15.422  23.815  0.00  0.00     0.035 C 
HETATM    5  C   UNL     1       9.868  15.327  23.826  0.00  0.00     0.020 A 
HETATM    6  C   UNL     1      10.492  14.976  25.017  0.00  0.00     0.065 A 
HETATM    7  C   UNL     1      10.936  15.458  22.877  0.00  0.00     0.071 A 
HETATM    8  N   UNL     1      12.129  15.304  23.479  0.00  0.00    -0.178 NA
HETATM    9  N   UNL     1      11.829  15.046  24.762  0.00  0.00    -0.277 N 
HETATM   10  H   UNL     1      12.590  14.903  25.416  0.00  0.00     0.189 HD
ENDROOT
BRANCH   1  11
HETATM   11  C   UNL     1       6.220  14.730  24.856  0.00  0.00     0.260 C 
HETATM   12  N   UNL     1       5.655  13.654  24.101  0.00  0.00    -0.318 N 
HETATM   13  C   UNL     1       6.509  12.718  23.371  0.00  0.00     0.159 C 
HETATM   14  O   UNL     1       5.582  15.480  25.595  0.00  0.00    -0.267 OA
BRANCH  12  15
HETATM   15  C   UNL     1       4.220  13.401  24.085  0.00  0.00     0.037 A 
HETATM   16  C   UNL     1       3.680  12.154  24.448  0.00  0.00     0.032 A 
HETATM   17  C   UNL     1       2.293  11.924  24.540  0.00  0.00     0.031 A 
HETATM   18  C   UNL     1       1.361  12.922  24.274  0.00  0.00     0.030 A 
HETATM   19  C   UNL     1       1.896  14.134  23.821  0.00  0.00     0.031 A 
HETATM   20  C   UNL     1       3.283  14.372  23.729  0.00  0.00     0.032 A 
BRANCH  18  21
HETATM   21  N   UNL     1       0.006  12.733  24.415  0.00  0.00    -0.377 N 
HETATM   22  C   UNL     1      -0.724  12.844  25.687  0.00  0.00     0.149 C 
HETATM   23  C   UNL     1      -1.743  11.689  25.759  0.00  0.00     0.187 C 
HETATM   24  O   UNL     1      -2.624  11.666  24.620  0.00  0.00    -0.388 OA
HETATM   25  C   UNL     1      -1.869  11.567  23.398  0.00  0.00     0.187 C 
HETATM   26  C   UNL     1      -0.898  12.744  23.253  0.00  0.00     0.149 C 
ENDBRANCH  18  21
ENDBRANCH  12  15
ENDBRANCH   1  11
BRANCH   2  27
HETATM   27  O   UNL     1       7.755  14.232  27.256  0.00  0.00    -0.360 OA
HETATM   28  H   UNL     1       7.759  13.249  27.286  0.00  0.00     0.217 HD
ENDBRANCH   2  27
BRANCH   7  29
HETATM   29  C   UNL     1      10.903  15.733  21.392  0.00  0.00     0.100 C 
BRANCH  29  30
HETATM   30  C   UNL     1      10.170  14.638  20.617  0.00  0.00    -0.050 A 
HETATM   31  C   UNL     1       8.941  14.845  19.970  0.00  0.00     0.007 A 
HETATM   32  C   UNL     1       8.286  13.805  19.308  0.00  0.00     0.003 A 
HETATM   33  C   UNL     1       8.808  12.519  19.346  0.00  0.00     0.037 A 
HETATM   34  C   UNL     1       9.987  12.253  20.038  0.00  0.00     0.068 A 
HETATM   35  C   UNL     1      10.677  13.309  20.654  0.00  0.00     0.044 A 
BRANCH  34  36
HETATM   36  O   UNL     1      10.293  10.922  20.081  0.00  0.00    -0.356 OA
HETATM   37  C   UNL     1      11.035  10.438  21.188  0.00  0.00     0.210 C 
ENDBRANCH  34  36
ENDBRANCH  29  30
ENDBRANCH   7  29
TORSDOF 7
ENDMDL
MODEL 3
REMARK VINA RESULT:    -8.677      2.361      4.738
REMARK INTER + INTRA:         -13.236
REMARK INTER:                 -12.198
REMARK INTRA:                  -1.039
REMARK UNBOUND:                -1.262
REMARK  7 active torsions:
REMARK  status: ('A' for Active; 'I' for Inactive)
REMARK    1  A    between atoms: N_6  and  C_7 
REMARK    2  A    between atoms: C_12  and  N_13 
REMARK       I    between atoms: N_13  and  C_15 
REMARK    3  A    between atoms: C_15  and  C_17 
REMARK    4  A    between atoms: C_18  and  O_20 
REMARK    5  A    between atoms: C_24  and  C_28 
REMARK    6  A    between atoms: C_28  and  C_29 
REMARK    7  A    between atoms: C_33  and  O_35 
ROOT
HETATM    1  C   UNL     1       9.178  12.228  21.944  0.00  0.00     0.066 C 
HETATM    2  C   UNL     1       9.463  11.549  20.743  0.00  0.00     0.083 C 
HETATM    3  C   UNL     1      10.716  11.633  20.127  0.00  0.00     0.069 C 
HETATM    4  C   UNL     1      10.219  12.928  22.589  0.00  0.00     0.035 C 
HETATM    5  C   UNL     1      11.439  13.154  21.915  0.00  0.00     0.020 A 
HETATM    6  C   UNL     1      11.663  12.480  20.720  0.00  0.00     0.065 A 
HETATM    7  C   UNL     1      12.600  13.977  22.094  0.00  0.00     0.071 A 
HETATM    8  N   UNL     1      13.509  13.734  21.133  0.00  0.00    -0.178 NA
HETATM    9  N   UNL     1      12.930  12.814  20.345  0.00  0.00    -0.277 N 
HETATM   10  H   UNL     1      13.447  12.468  19.546  0.00  0.00     0.189 HD
ENDROOT
BRANCH   1  11
HETATM   11  C   UNL     1       7.761  12.209  22.463  0.00  0.00     0.260 C 
HETATM   12  N   UNL     1       6.890  13.329  22.282  0.00  0.00    -0.318 N 
HETATM   13  C   UNL     1       7.343  14.526  21.574  0.00  0.00     0.159 C 
HETATM   14  O   UNL     1       7.419  11.123  22.933  0.00  0.00    -0.267 OA
BRANCH  12  15
HETATM   15  C   UNL     1       5.503  13.301  22.727  0.00  0.00     0.037 A 
HETATM   16  C   UNL     1       4.895  14.410  23.341  0.00  0.00     0.032 A 
HETATM   17  C   UNL     1       3.528  14.437  23.680  0.00  0.00     0.031 A 
HETATM   18  C   UNL     1       2.685  13.360  23.430  0.00  0.00     0.030 A 
HETATM   19  C   UNL     1       3.310  12.221  22.907  0.00  0.00     0.031 A 
HETATM   20  C   UNL     1       4.677  12.188  22.562  0.00  0.00     0.032 A 
BRANCH  18  21
HETATM   21  N   UNL     1       1.337  13.389  23.701  0.00  0.00    -0.377 N 
HETATM   22  C   UNL     1       0.750  13.864  24.964  0.00  0.00     0.149 C 
HETATM   23  C   UNL     1      -0.385  12.898  25.360  0.00  0.00     0.187 C 
HETATM   24  O   UNL     1      -1.367  12.754  24.317  0.00  0.00    -0.388 OA
HETATM   25  C   UNL     1      -0.750  12.297  23.098  0.00  0.00     0.187 C 
HETATM   26  C   UNL     1       0.333  13.276  22.630  0.00  0.00     0.149 C 
ENDBRANCH  18  21
ENDBRANCH  12  15
ENDBRANCH   1  11
BRANCH   2  27
HETATM   27  O   UNL     1       8.547  10.764  20.085  0.00  0.00    -0.360 OA
HETATM   28  H   UNL     1       7.814  11.346  19.784  0.00  0.00     0.217 HD
ENDBRANCH   2  27
BRANCH   7  29
HETATM   29  C   UNL     1      12.921  15.007  23.152  0.00  0.00     0.100 C 
BRANCH  29  30
HETATM   30  C   UNL     1      12.199  14.727  24.470  0.00  0.00    -0.050 A 
HETATM   31  C   UNL     1      12.684  13.832  25.437  0.00  0.00     0.007 A 
HETATM   32  C   UNL     1      11.970  13.574  26.609  0.00  0.00     0.003 A 
HETATM   33  C   UNL     1      10.721  14.148  26.803  0.00  0.00     0.037 A 
HETATM   34  C   UNL     1      10.169  14.985  25.837  0.00  0.00     0.068 A 
HETATM   35  C   UNL     1      10.910  15.291  24.685  0.00  0.00     0.044 A 
BRANCH  34  36
HETATM   36  O   UNL     1       8.887  15.362  26.125  0.00  0.00    -0.356 OA
HETATM   37  C   UNL     1       7.825  14.550  25.654  0.00  0.00     0.210 C 
ENDBRANCH  34  36
ENDBRANCH  29  30
ENDBRANCH   7  29
TORSDOF 7
ENDMDL
MODEL 4
REMARK VINA RESULT:    -8.513      2.937      5.274
REMARK INTER + INTRA:         -13.009
REMARK INTER:                 -11.713
REMARK INTRA:                  -1.296
REMARK UNBOUND:                -1.262
REMARK  7 active torsions:
REMARK  status: ('A' for Active; 'I' for Inactive)
REMARK    1  A    between atoms: N_6  and  C_7 
REMARK    2  A    between atoms: C_12  and  N_13 
REMARK       I    between atoms: N_13  and  C_15 
REMARK    3  A    between atoms: C_15  and  C_17 
REMARK    4  A    between atoms: C_18  and  O_20 
REMARK    5  A    between atoms: C_24  and  C_28 
REMARK    6  A    between atoms: C_28  and  C_29 
REMARK    7  A    between atoms: C_33  and  O_35 
ROOT
HETATM    1  C   UNL     1       9.540  13.685  21.743  0.00  0.00     0.066 C 
HETATM    2  C   UNL     1      10.049  14.709  20.920  0.00  0.00     0.083 C 
HETATM    3  C   UNL     1      11.418  14.986  20.847  0.00  0.00     0.069 C 
HETATM    4  C   UNL     1      10.450  12.856  22.432  0.00  0.00     0.035 C 
HETATM    5  C   UNL     1      11.815  13.209  22.496  0.00  0.00     0.020 A 
HETATM    6  C   UNL     1      12.264  14.243  21.682  0.00  0.00     0.065 A 
HETATM    7  C   UNL     1      12.969  12.807  23.248  0.00  0.00     0.071 A 
HETATM    8  N   UNL     1      14.061  13.477  22.838  0.00  0.00    -0.178 NA
HETATM    9  N   UNL     1      13.611  14.306  21.883  0.00  0.00    -0.277 N 
HETATM   10  H   UNL     1      14.276  14.911  21.417  0.00  0.00     0.189 HD
ENDROOT
BRANCH   1  11
HETATM   11  C   UNL     1       8.043  13.550  21.881  0.00  0.00     0.260 C 
HETATM   12  N   UNL     1       7.355  14.068  23.023  0.00  0.00    -0.318 N 
HETATM   13  C   UNL     1       8.080  14.759  24.088  0.00  0.00     0.159 C 
HETATM   14  O   UNL     1       7.495  13.071  20.888  0.00  0.00    -0.267 OA
BRANCH  12  15
HETATM   15  C   UNL     1       5.904  13.995  23.141  0.00  0.00     0.037 A 
HETATM   16  C   UNL     1       5.213  12.772  23.088  0.00  0.00     0.032 A 
HETATM   17  C   UNL     1       3.825  12.673  23.305  0.00  0.00     0.031 A 
HETATM   18  C   UNL     1       3.042  13.787  23.588  0.00  0.00     0.030 A 
HETATM   19  C   UNL     1       3.713  15.016  23.546  0.00  0.00     0.031 A 
HETATM   20  C   UNL     1       5.103  15.122  23.331  0.00  0.00     0.032 A 
BRANCH  18  21
HETATM   21  N   UNL     1       1.697  13.703  23.860  0.00  0.00    -0.377 N 
HETATM   22  C   UNL     1       1.067  14.169  25.106  0.00  0.00     0.149 C 
HETATM   23  C   UNL     1       0.025  13.119  25.540  0.00  0.00     0.187 C 
HETATM   24  O   UNL     1      -0.939  12.847  24.505  0.00  0.00    -0.388 OA
HETATM   25  C   UNL     1      -0.282  12.404  23.303  0.00  0.00     0.187 C 
HETATM   26  C   UNL     1       0.708  13.460  22.796  0.00  0.00     0.149 C 
ENDBRANCH  18  21
ENDBRANCH  12  15
ENDBRANCH   1  11
BRANCH   2  27
HETATM   27  O   UNL     1       9.255  15.512  20.136  0.00  0.00    -0.360 OA
HETATM   28  H   UNL     1       8.549  14.948  19.748  0.00  0.00     0.217 HD
ENDBRANCH   2  27
BRANCH   7  29
HETATM   29  C   UNL     1      13.114  11.795  24.360  0.00  0.00     0.100 C 
BRANCH  29  30
HETATM   30  C   UNL     1      13.212  12.456  25.734  0.00  0.00    -0.050 A 
HETATM   31  C   UNL     1      14.155  12.079  26.704  0.00  0.00     0.007 A 
HETATM   32  C   UNL     1      14.182  12.683  27.962  0.00  0.00     0.003 A 
HETATM   33  C   UNL     1      13.217  13.622  28.304  0.00  0.00     0.037 A 
HETATM   34  C   UNL     1      12.219  13.972  27.399  0.00  0.00     0.068 A 
HETATM   35  C   UNL     1      12.226  13.410  26.114  0.00  0.00     0.044 A 
BRANCH  34  36
HETATM   36  O   UNL     1      11.282  14.811  27.936  0.00  0.00    -0.356 OA
HETATM   37  C   UNL     1      10.046  14.959  27.258  0.00  0.00     0.210 C 
ENDBRANCH  34  36
ENDBRANCH  29  30
ENDBRANCH   7  29
TORSDOF 7
ENDMDL
MODEL 5
REMARK VINA RESULT:    -8.494      2.108      3.267
REMARK INTER + INTRA:         -12.983
REMARK INTER:                 -11.679
REMARK INTRA:                  -1.304
REMARK UNBOUND:                -1.262
REMARK  7 active torsions:
REMARK  status: ('A' for Active; 'I' for Inactive)
REMARK    1  A    between atoms: N_6  and  C_7 
REMARK    2  A    between atoms: C_12  and  N_13 
REMARK       I    between atoms: N_13  and  C_15 
REMARK    3  A    between atoms: C_15  and  C_17 
REMARK    4  A    between atoms: C_18  and  O_20 
REMARK    5  A    between atoms: C_24  and  C_28 
REMARK    6  A    between atoms: C_28  and  C_29 
REMARK    7  A    between atoms: C_33  and  O_35 
ROOT
HETATM    1  C   UNL     1      10.118  14.668  24.988  0.00  0.00     0.066 C 
HETATM    2  C   UNL     1      10.883  14.248  26.095  0.00  0.00     0.083 C 
HETATM    3  C   UNL     1      12.252  13.981  25.988  0.00  0.00     0.069 C 
HETATM    4  C   UNL     1      10.778  14.922  23.768  0.00  0.00     0.035 C 
HETATM    5  C   UNL     1      12.119  14.517  23.594  0.00  0.00     0.020 A 
HETATM    6  C   UNL     1      12.824  14.086  24.712  0.00  0.00     0.065 A 
HETATM    7  C   UNL     1      13.037  14.368  22.502  0.00  0.00     0.071 A 
HETATM    8  N   UNL     1      14.246  13.979  22.946  0.00  0.00    -0.178 NA
HETATM    9  N   UNL     1      14.092  13.847  24.273  0.00  0.00    -0.277 N 
HETATM   10  H   UNL     1      14.893  13.566  24.826  0.00  0.00     0.189 HD
ENDROOT
BRANCH   1  11
HETATM   11  C   UNL     1       8.623  14.788  25.151  0.00  0.00     0.260 C 
HETATM   12  N   UNL     1       7.726  14.017  24.347  0.00  0.00    -0.318 N 
HETATM   13  C   UNL     1       8.232  13.075  23.349  0.00  0.00     0.159 C 
HETATM   14  O   UNL     1       8.281  15.503  26.093  0.00  0.00    -0.267 OA
BRANCH  12  15
HETATM   15  C   UNL     1       6.282  14.080  24.533  0.00  0.00     0.037 A 
HETATM   16  C   UNL     1       5.514  15.152  24.046  0.00  0.00     0.032 A 
HETATM   17  C   UNL     1       4.108  15.178  24.125  0.00  0.00     0.031 A 
HETATM   18  C   UNL     1       3.383  14.137  24.695  0.00  0.00     0.030 A 
HETATM   19  C   UNL     1       4.151  13.115  25.265  0.00  0.00     0.031 A 
HETATM   20  C   UNL     1       5.559  13.081  25.188  0.00  0.00     0.032 A 
BRANCH  18  21
HETATM   21  N   UNL     1       2.008  14.118  24.728  0.00  0.00    -0.377 N 
HETATM   22  C   UNL     1       1.201  14.251  25.951  0.00  0.00     0.149 C 
HETATM   23  C   UNL     1       0.043  13.235  25.877  0.00  0.00     0.187 C 
HETATM   24  O   UNL     1      -0.743  13.390  24.681  0.00  0.00    -0.388 OA
HETATM   25  C   UNL     1       0.086  13.262  23.510  0.00  0.00     0.187 C 
HETATM   26  C   UNL     1       1.204  14.311  23.510  0.00  0.00     0.149 C 
ENDBRANCH  18  21
ENDBRANCH  12  15
ENDBRANCH   1  11
BRANCH   2  27
HETATM   27  O   UNL     1      10.355  14.061  27.350  0.00  0.00    -0.360 OA
HETATM   28  H   UNL     1      11.028  14.354  28.005  0.00  0.00     0.217 HD
ENDBRANCH   2  27
BRANCH   7  29
HETATM   29  C   UNL     1      12.843  14.582  21.019  0.00  0.00     0.100 C 
BRANCH  29  30
HETATM   30  C   UNL     1      11.404  14.317  20.580  0.00  0.00    -0.050 A 
HETATM   31  C   UNL     1      10.436  15.327  20.466  0.00  0.00     0.007 A 
HETATM   32  C   UNL     1       9.120  15.034  20.102  0.00  0.00     0.003 A 
HETATM   33  C   UNL     1       8.727  13.715  19.918  0.00  0.00     0.037 A 
HETATM   34  C   UNL     1       9.637  12.675  20.091  0.00  0.00     0.068 A 
HETATM   35  C   UNL     1      10.973  12.972  20.400  0.00  0.00     0.044 A 
BRANCH  34  36
HETATM   36  O   UNL     1       9.060  11.439  19.996  0.00  0.00    -0.356 OA
HETATM   37  C   UNL     1       7.647  11.361  19.909  0.00  0.00     0.210 C 
ENDBRANCH  34  36
ENDBRANCH  29  30
ENDBRANCH   7  29
TORSDOF 7
ENDMDL
MODEL 6
REMARK VINA RESULT:    -8.468      1.976      3.236
REMARK INTER + INTRA:         -12.948
REMARK INTER:                 -11.486
REMARK INTRA:                  -1.462
REMARK UNBOUND:                -1.262
REMARK  7 active torsions:
REMARK  status: ('A' for Active; 'I' for Inactive)
REMARK    1  A    between atoms: N_6  and  C_7 
REMARK    2  A    between atoms: C_12  and  N_13 
REMARK       I    between atoms: N_13  and  C_15 
REMARK    3  A    between atoms: C_15  and  C_17 
REMARK    4  A    between atoms: C_18  and  O_20 
REMARK    5  A    between atoms: C_24  and  C_28 
REMARK    6  A    between atoms: C_28  and  C_29 
REMARK    7  A    between atoms: C_33  and  O_35 
ROOT
HETATM    1  C   UNL     1       9.050  13.598  25.571  0.00  0.00     0.066 C 
HETATM    2  C   UNL     1       9.633  14.433  26.546  0.00  0.00     0.083 C 
HETATM    3  C   UNL     1      11.009  14.429  26.795  0.00  0.00     0.069 C 
HETATM    4  C   UNL     1       9.897  12.813  24.761  0.00  0.00     0.035 C 
HETATM    5  C   UNL     1      11.262  12.677  25.092  0.00  0.00     0.020 A 
HETATM    6  C   UNL     1      11.784  13.506  26.079  0.00  0.00     0.065 A 
HETATM    7  C   UNL     1      12.357  11.833  24.707  0.00  0.00     0.071 A 
HETATM    8  N   UNL     1      13.487  12.201  25.337  0.00  0.00    -0.178 NA
HETATM    9  N   UNL     1      13.116  13.221  26.127  0.00  0.00    -0.277 N 
HETATM   10  H   UNL     1      13.822  13.670  26.698  0.00  0.00     0.189 HD
ENDROOT
BRANCH   1  11
HETATM   11  C   UNL     1       7.546  13.552  25.469  0.00  0.00     0.260 C 
HETATM   12  N   UNL     1       6.857  14.187  24.388  0.00  0.00    -0.318 N 
HETATM   13  C   UNL     1       7.593  14.889  23.337  0.00  0.00     0.159 C 
HETATM   14  O   UNL     1       7.012  12.838  26.318  0.00  0.00    -0.267 OA
BRANCH  12  15
HETATM   15  C   UNL     1       5.409  14.101  24.245  0.00  0.00     0.037 A 
HETATM   16  C   UNL     1       4.792  13.061  23.528  0.00  0.00     0.032 A 
HETATM   17  C   UNL     1       3.394  12.904  23.469  0.00  0.00     0.031 A 
HETATM   18  C   UNL     1       2.526  13.774  24.120  0.00  0.00     0.030 A 
HETATM   19  C   UNL     1       3.136  14.863  24.754  0.00  0.00     0.031 A 
HETATM   20  C   UNL     1       4.536  15.026  24.819  0.00  0.00     0.032 A 
BRANCH  18  21
HETATM   21  N   UNL     1       1.161  13.604  24.123  0.00  0.00    -0.377 N 
HETATM   22  C   UNL     1       0.313  13.678  25.323  0.00  0.00     0.149 C 
HETATM   23  C   UNL     1      -0.723  12.539  25.251  0.00  0.00     0.187 C 
HETATM   24  O   UNL     1      -1.490  12.576  24.033  0.00  0.00    -0.388 OA
HETATM   25  C   UNL     1      -0.623  12.510  22.885  0.00  0.00     0.187 C 
HETATM   26  C   UNL     1       0.374  13.676  22.881  0.00  0.00     0.149 C 
ENDBRANCH  18  21
ENDBRANCH  12  15
ENDBRANCH   1  11
BRANCH   2  27
HETATM   27  O   UNL     1       8.908  15.304  27.324  0.00  0.00    -0.360 OA
HETATM   28  H   UNL     1       9.537  15.951  27.715  0.00  0.00     0.217 HD
ENDBRANCH   2  27
BRANCH   7  29
HETATM   29  C   UNL     1      12.408  10.668  23.746  0.00  0.00     0.100 C 
BRANCH  29  30
HETATM   30  C   UNL     1      12.049  11.079  22.319  0.00  0.00    -0.050 A 
HETATM   31  C   UNL     1      12.947  11.730  21.457  0.00  0.00     0.007 A 
HETATM   32  C   UNL     1      12.563  12.125  20.174  0.00  0.00     0.003 A 
HETATM   33  C   UNL     1      11.252  11.946  19.754  0.00  0.00     0.037 A 
HETATM   34  C   UNL     1      10.309  11.371  20.603  0.00  0.00     0.068 A 
HETATM   35  C   UNL     1      10.708  10.921  21.871  0.00  0.00     0.044 A 
BRANCH  34  36
HETATM   36  O   UNL     1       9.045  11.384  20.084  0.00  0.00    -0.356 OA
HETATM   37  C   UNL     1       8.617  12.540  19.384  0.00  0.00     0.210 C 
ENDBRANCH  34  36
ENDBRANCH  29  30
ENDBRANCH   7  29
TORSDOF 7
ENDMDL
MODEL 7
REMARK VINA RESULT:    -8.438      4.980      6.966
REMARK INTER + INTRA:         -12.906
REMARK INTER:                 -11.516
REMARK INTRA:                  -1.390
REMARK UNBOUND:                -1.262
REMARK  7 active torsions:
REMARK  status: ('A' for Active; 'I' for Inactive)
REMARK    1  A    between atoms: N_6  and  C_7 
REMARK    2  A    between atoms: C_12  and  N_13 
REMARK       I    between atoms: N_13  and  C_15 
REMARK    3  A    between atoms: C_15  and  C_17 
REMARK    4  A    between atoms: C_18  and  O_20 
REMARK    5  A    between atoms: C_24  and  C_28 
REMARK    6  A    between atoms: C_28  and  C_29 
REMARK    7  A    between atoms: C_33  and  O_35 
ROOT
HETATM    1  C   UNL     1       8.257  10.676  22.791  0.00  0.00     0.066 C 
HETATM    2  C   UNL     1       9.397  10.850  21.981  0.00  0.00     0.083 C 
HETATM    3  C   UNL     1      10.297  11.901  22.189  0.00  0.00     0.069 C 
HETATM    4  C   UNL     1       8.080  11.527  23.902  0.00  0.00     0.035 C 
HETATM    5  C   UNL     1       8.884  12.679  24.042  0.00  0.00     0.020 A 
HETATM    6  C   UNL     1       9.983  12.819  23.202  0.00  0.00     0.065 A 
HETATM    7  C   UNL     1       8.877  13.873  24.837  0.00  0.00     0.071 A 
HETATM    8  N   UNL     1       9.959  14.628  24.572  0.00  0.00    -0.178 NA
HETATM    9  N   UNL     1      10.613  13.956  23.611  0.00  0.00    -0.277 N 
HETATM   10  H   UNL     1      11.480  14.341  23.258  0.00  0.00     0.189 HD
ENDROOT
BRANCH   1  11
HETATM   11  C   UNL     1       7.258   9.611  22.408  0.00  0.00     0.260 C 
HETATM   12  N   UNL     1       6.028   9.949  21.762  0.00  0.00    -0.318 N 
HETATM   13  C   UNL     1       5.705  11.338  21.439  0.00  0.00     0.159 C 
HETATM   14  O   UNL     1       7.659   8.463  22.598  0.00  0.00    -0.267 OA
BRANCH  12  15
HETATM   15  C   UNL     1       5.081   8.927  21.335  0.00  0.00     0.037 A 
HETATM   16  C   UNL     1       5.011   8.488  20.001  0.00  0.00     0.032 A 
HETATM   17  C   UNL     1       4.178   7.429  19.592  0.00  0.00     0.031 A 
HETATM   18  C   UNL     1       3.363   6.744  20.487  0.00  0.00     0.030 A 
HETATM   19  C   UNL     1       3.361   7.242  21.796  0.00  0.00     0.031 A 
HETATM   20  C   UNL     1       4.195   8.301  22.213  0.00  0.00     0.032 A 
BRANCH  18  21
HETATM   21  N   UNL     1       2.587   5.670  20.118  0.00  0.00    -0.377 N 
HETATM   22  C   UNL     1       3.066   4.281  20.041  0.00  0.00     0.149 C 
HETATM   23  C   UNL     1       2.485   3.642  18.763  0.00  0.00     0.187 C 
HETATM   24  O   UNL     1       1.049   3.731  18.714  0.00  0.00    -0.388 OA
HETATM   25  C   UNL     1       0.623   5.104  18.801  0.00  0.00     0.187 C 
HETATM   26  C   UNL     1       1.117   5.752  20.100  0.00  0.00     0.149 C 
ENDBRANCH  18  21
ENDBRANCH  12  15
ENDBRANCH   1  11
BRANCH   2  27
HETATM   27  O   UNL     1       9.712  10.020  20.932  0.00  0.00    -0.360 OA
HETATM   28  H   UNL     1      10.331  10.505  20.341  0.00  0.00     0.217 HD
ENDBRANCH   2  27
BRANCH   7  29
HETATM   29  C   UNL     1       7.887  14.361  25.869  0.00  0.00     0.100 C 
BRANCH  29  30
HETATM   30  C   UNL     1       6.587  14.855  25.235  0.00  0.00    -0.050 A 
HETATM   31  C   UNL     1       6.489  15.251  23.891  0.00  0.00     0.007 A 
HETATM   32  C   UNL     1       5.291  15.735  23.364  0.00  0.00     0.003 A 
HETATM   33  C   UNL     1       4.186  15.906  24.188  0.00  0.00     0.037 A 
HETATM   34  C   UNL     1       4.260  15.595  25.543  0.00  0.00     0.068 A 
HETATM   35  C   UNL     1       5.446  15.054  26.062  0.00  0.00     0.044 A 
BRANCH  34  36
HETATM   36  O   UNL     1       3.131  15.939  26.233  0.00  0.00    -0.356 OA
HETATM   37  C   UNL     1       2.223  14.912  26.590  0.00  0.00     0.210 C 
ENDBRANCH  34  36
ENDBRANCH  29  30
ENDBRANCH   7  29
TORSDOF 7
ENDMDL
MODEL 8
REMARK VINA RESULT:    -8.363      5.482      7.719
REMARK INTER + INTRA:         -12.802
REMARK INTER:                 -11.819
REMARK INTRA:                  -0.983
REMARK UNBOUND:                -1.262
REMARK  7 active torsions:
REMARK  status: ('A' for Active; 'I' for Inactive)
REMARK    1  A    between atoms: N_6  and  C_7 
REMARK    2  A    between atoms: C_12  and  N_13 
REMARK       I    between atoms: N_13  and  C_15 
REMARK    3  A    between atoms: C_15  and  C_17 
REMARK    4  A    between atoms: C_18  and  O_20 
REMARK    5  A    between atoms: C_24  and  C_28 
REMARK    6  A    between atoms: C_28  and  C_29 
REMARK    7  A    between atoms: C_33  and  O_35 
ROOT
HETATM    1  C   UNL     1       6.375  11.019  21.979  0.00  0.00     0.066 C 
HETATM    2  C   UNL     1       7.731  10.759  22.261  0.00  0.00     0.083 C 
HETATM    3  C   UNL     1       8.556  11.712  22.867  0.00  0.00     0.069 C 
HETATM    4  C   UNL     1       5.816  12.238  22.416  0.00  0.00     0.035 C 
HETATM    5  C   UNL     1       6.656  13.269  22.889  0.00  0.00     0.020 A 
HETATM    6  C   UNL     1       7.992  12.970  23.127  0.00  0.00     0.065 A 
HETATM    7  C   UNL     1       6.536  14.669  23.183  0.00  0.00     0.071 A 
HETATM    8  N   UNL     1       7.693  15.153  23.670  0.00  0.00    -0.178 NA
HETATM    9  N   UNL     1       8.533  14.107  23.650  0.00  0.00    -0.277 N 
HETATM   10  H   UNL     1       9.478  14.240  23.988  0.00  0.00     0.189 HD
ENDROOT
BRANCH   1  11
HETATM   11  C   UNL     1       5.595   9.998  21.188  0.00  0.00     0.260 C 
HETATM   12  N   UNL     1       5.016   8.854  21.822  0.00  0.00    -0.318 N 
HETATM   13  C   UNL     1       5.149   8.646  23.264  0.00  0.00     0.159 C 
HETATM   14  O   UNL     1       5.422  10.309  20.009  0.00  0.00    -0.267 OA
BRANCH  12  15
HETATM   15  C   UNL     1       4.212   7.891  21.081  0.00  0.00     0.037 A 
HETATM   16  C   UNL     1       3.090   7.263  21.649  0.00  0.00     0.032 A 
HETATM   17  C   UNL     1       2.242   6.412  20.914  0.00  0.00     0.031 A 
HETATM   18  C   UNL     1       2.462   6.134  19.570  0.00  0.00     0.030 A 
HETATM   19  C   UNL     1       3.631   6.682  19.029  0.00  0.00     0.031 A 
HETATM   20  C   UNL     1       4.484   7.537  19.758  0.00  0.00     0.032 A 
BRANCH  18  21
HETATM   21  N   UNL     1       1.613   5.353  18.821  0.00  0.00    -0.377 N 
HETATM   22  C   UNL     1       0.495   4.570  19.372  0.00  0.00     0.149 C 
HETATM   23  C   UNL     1       0.480   3.195  18.675  0.00  0.00     0.187 C 
HETATM   24  O   UNL     1       0.416   3.311  17.242  0.00  0.00    -0.388 OA
HETATM   25  C   UNL     1       1.520   4.090  16.745  0.00  0.00     0.187 C 
HETATM   26  C   UNL     1       1.522   5.495  17.359  0.00  0.00     0.149 C 
ENDBRANCH  18  21
ENDBRANCH  12  15
ENDBRANCH   1  11
BRANCH   2  27
HETATM   27  O   UNL     1       8.349   9.568  21.962  0.00  0.00    -0.360 OA
HETATM   28  H   UNL     1       8.757   9.658  21.071  0.00  0.00     0.217 HD
ENDBRANCH   2  27
BRANCH   7  29
HETATM   29  C   UNL     1       5.361  15.607  23.036  0.00  0.00     0.100 C 
BRANCH  29  30
HETATM   30  C   UNL     1       4.298  15.374  24.109  0.00  0.00    -0.050 A 
HETATM   31  C   UNL     1       4.386  15.902  25.407  0.00  0.00     0.007 A 
HETATM   32  C   UNL     1       3.412  15.629  26.369  0.00  0.00     0.003 A 
HETATM   33  C   UNL     1       2.369  14.761  26.076  0.00  0.00     0.037 A 
HETATM   34  C   UNL     1       2.281  14.158  24.825  0.00  0.00     0.068 A 
HETATM   35  C   UNL     1       3.227  14.476  23.838  0.00  0.00     0.044 A 
BRANCH  34  36
HETATM   36  O   UNL     1       1.272  13.239  24.744  0.00  0.00    -0.356 OA
HETATM   37  C   UNL     1      -0.008  13.601  25.235  0.00  0.00     0.210 C 
ENDBRANCH  34  36
ENDBRANCH  29  30
ENDBRANCH   7  29
TORSDOF 7
ENDMDL
MODEL 9
REMARK VINA RESULT:    -8.245      2.283      3.160
REMARK INTER + INTRA:         -12.640
REMARK INTER:                 -11.378
REMARK INTRA:                  -1.262
REMARK UNBOUND:                -1.262
REMARK  7 active torsions:
REMARK  status: ('A' for Active; 'I' for Inactive)
REMARK    1  A    between atoms: N_6  and  C_7 
REMARK    2  A    between atoms: C_12  and  N_13 
REMARK       I    between atoms: N_13  and  C_15 
REMARK    3  A    between atoms: C_15  and  C_17 
REMARK    4  A    between atoms: C_18  and  O_20 
REMARK    5  A    between atoms: C_24  and  C_28 
REMARK    6  A    between atoms: C_28  and  C_29 
REMARK    7  A    between atoms: C_33  and  O_35 
ROOT
HETATM    1  C   UNL     1       7.622  11.308  24.578  0.00  0.00     0.066 C 
HETATM    2  C   UNL     1       8.198  10.027  24.692  0.00  0.00     0.083 C 
HETATM    3  C   UNL     1       9.547   9.850  25.014  0.00  0.00     0.069 C 
HETATM    4  C   UNL     1       8.409  12.434  24.900  0.00  0.00     0.035 C 
HETATM    5  C   UNL     1       9.802  12.292  25.077  0.00  0.00     0.020 A 
HETATM    6  C   UNL     1      10.326  11.007  25.156  0.00  0.00     0.065 A 
HETATM    7  C   UNL     1      10.942  13.158  25.166  0.00  0.00     0.071 A 
HETATM    8  N   UNL     1      12.062  12.449  25.393  0.00  0.00    -0.178 NA
HETATM    9  N   UNL     1      11.655  11.170  25.411  0.00  0.00    -0.277 N 
HETATM   10  H   UNL     1      12.344  10.447  25.580  0.00  0.00     0.189 HD
ENDROOT
BRANCH   1  11
HETATM   11  C   UNL     1       6.202  11.418  24.080  0.00  0.00     0.260 C 
HETATM   12  N   UNL     1       5.143  11.838  24.945  0.00  0.00    -0.318 N 
HETATM   13  C   UNL     1       5.408  12.190  26.340  0.00  0.00     0.159 C 
HETATM   14  O   UNL     1       6.085  11.227  22.869  0.00  0.00    -0.267 OA
BRANCH  12  15
HETATM   15  C   UNL     1       3.778  12.004  24.462  0.00  0.00     0.037 A 
HETATM   16  C   UNL     1       2.799  11.010  24.642  0.00  0.00     0.032 A 
HETATM   17  C   UNL     1       1.452  11.197  24.276  0.00  0.00     0.031 A 
HETATM   18  C   UNL     1       0.999  12.382  23.708  0.00  0.00     0.030 A 
HETATM   19  C   UNL     1       1.991  13.334  23.442  0.00  0.00     0.031 A 
HETATM   20  C   UNL     1       3.341  13.156  23.807  0.00  0.00     0.032 A 
BRANCH  18  21
HETATM   21  N   UNL     1      -0.322  12.604  23.398  0.00  0.00    -0.377 N 
HETATM   22  C   UNL     1      -1.430  12.527  24.364  0.00  0.00     0.149 C 
HETATM   23  C   UNL     1      -2.610  11.802  23.686  0.00  0.00     0.187 C 
HETATM   24  O   UNL     1      -3.000  12.432  22.451  0.00  0.00    -0.388 OA
HETATM   25  C   UNL     1      -1.886  12.495  21.540  0.00  0.00     0.187 C 
HETATM   26  C   UNL     1      -0.719  13.279  22.151  0.00  0.00     0.149 C 
ENDBRANCH  18  21
ENDBRANCH  12  15
ENDBRANCH   1  11
BRANCH   2  27
HETATM   27  O   UNL     1       7.494   8.863  24.492  0.00  0.00    -0.360 OA
HETATM   28  H   UNL     1       6.596   9.107  24.174  0.00  0.00     0.217 HD
ENDBRANCH   2  27
BRANCH   7  29
HETATM   29  C   UNL     1      11.046  14.662  25.052  0.00  0.00     0.100 C 
BRANCH  29  30
HETATM   30  C   UNL     1      10.990  15.136  23.600  0.00  0.00    -0.050 A 
HETATM   31  C   UNL     1      10.312  16.298  23.196  0.00  0.00     0.007 A 
HETATM   32  C   UNL     1      10.251  16.672  21.853  0.00  0.00     0.003 A 
HETATM   33  C   UNL     1      10.803  15.852  20.877  0.00  0.00     0.037 A 
HETATM   34  C   UNL     1      11.422  14.655  21.225  0.00  0.00     0.068 A 
HETATM   35  C   UNL     1      11.534  14.306  22.580  0.00  0.00     0.044 A 
BRANCH  34  36
HETATM   36  O   UNL     1      11.796  13.911  20.141  0.00  0.00    -0.356 OA
HETATM   37  C   UNL     1      11.628  12.505  20.200  0.00  0.00     0.210 C 
ENDBRANCH  34  36
ENDBRANCH  29  30
ENDBRANCH   7  29
TORSDOF 7
ENDMDL
