MODEL 1
REMARK VINA RESULT:    -9.457      0.000      0.000
REMARK INTER + INTRA:         -14.677
REMARK INTER:                 -13.044
REMARK INTRA:                  -1.634
REMARK UNBOUND:                -1.351
REMARK  8 active torsions:
REMARK  status: ('A' for Active; 'I' for Inactive)
REMARK    1  A    between atoms: C_2  and  N_3 
REMARK       I    between atoms: N_3  and  C_4 
REMARK    2  A    between atoms: C_4  and  C_6 
REMARK    3  A    between atoms: C_9  and  C_24 
REMARK    4  A    between atoms: C_10  and  C_11 
REMARK    5  A    between atoms: C_14  and  C_15 
REMARK    6  A    between atoms: C_15  and  N_16 
REMARK    7  A    between atoms: C_28  and  O_29 
REMARK    8  A    between atoms: C_31  and  O_32 
ROOT
HETATM    1  C   UNL     1      -0.215   8.893  27.486  0.00  0.00     0.165 A 
HETATM    2  N   UNL     1      -1.104   9.760  27.990  0.00  0.00    -0.121 NA
HETATM    3  O   UNL     1      -1.283  10.720  27.035  0.00  0.00    -0.211 OA
HETATM    4  C   UNL     1      -0.548  10.443  25.916  0.00  0.00     0.128 A 
HETATM    5  C   UNL     1       0.219   9.301  26.169  0.00  0.00     0.048 A 
ENDROOT
BRANCH   5   6
HETATM    6  C   UNL     1       0.991   8.557  25.167  0.00  0.00    -0.021 C 
HETATM    7  C   UNL     1       0.374   7.860  24.116  0.00  0.00     0.013 C 
HETATM    8  C   UNL     1       1.052   6.819  23.466  0.00  0.00     0.010 C 
HETATM    9  C   UNL     1       2.387   6.538  23.775  0.00  0.00    -0.030 C 
HETATM   10  C   UNL     1       3.065   7.396  24.640  0.00  0.00     0.010 C 
HETATM   11  C   UNL     1       2.369   8.376  25.343  0.00  0.00     0.013 C 
BRANCH   9  12
HETATM   12  C   UNL     1       3.072   5.264  23.334  0.00  0.00     0.311 C 
BRANCH  12  13
HETATM   13  N   UNL     1       4.240   5.445  22.465  0.00  0.00     0.096 N 
HETATM   14  C   UNL     1       4.863   4.161  22.074  0.00  0.00     0.299 C 
HETATM   15  C   UNL     1       4.033   3.334  21.078  0.00  0.00     0.198 C 
HETATM   16  O   UNL     1       3.724   4.090  19.901  0.00  0.00    -0.388 OA
HETATM   17  C   UNL     1       3.034   5.297  20.235  0.00  0.00     0.198 C 
HETATM   18  C   UNL     1       3.843   6.157  21.226  0.00  0.00     0.299 C 
ENDBRANCH  12  13
ENDBRANCH   9  12
ENDBRANCH   5   6
BRANCH   1  19
HETATM   19  C   UNL     1       0.084   7.668  28.239  0.00  0.00     0.273 C 
HETATM   20  N   UNL     1       0.613   7.909  29.497  0.00  0.00    -0.356 N 
HETATM   21  H   UNL     1       0.783   8.878  29.745  0.00  0.00     0.162 HD
HETATM   22  O   UNL     1      -0.175   6.538  27.831  0.00  0.00    -0.266 OA
BRANCH  20  23
HETATM   23  C   UNL     1       0.784   6.874  30.489  0.00  0.00     0.118 C 
HETATM   24  C   UNL     1       2.248   6.641  30.824  0.00  0.00     0.026 C 
ENDBRANCH  20  23
ENDBRANCH   1  19
BRANCH   4  25
HETATM   25  C   UNL     1      -0.881  11.334  24.787  0.00  0.00     0.036 A 
HETATM   26  C   UNL     1       0.128  11.991  24.061  0.00  0.00     0.044 A 
HETATM   27  C   UNL     1      -0.173  12.802  22.963  0.00  0.00     0.068 A 
HETATM   28 CL   UNL     1       1.093  13.669  22.176  0.00  0.00    -0.081 Cl
HETATM   29  C   UNL     1      -1.483  12.902  22.509  0.00  0.00     0.090 A 
HETATM   30  C   UNL     1      -2.505  12.245  23.179  0.00  0.00     0.075 A 
HETATM   31  C   UNL     1      -2.207  11.494  24.322  0.00  0.00     0.081 A 
BRANCH  29  32
HETATM   32  O   UNL     1      -1.818  13.626  21.399  0.00  0.00    -0.359 OA
HETATM   33  H   UNL     1      -2.793  13.660  21.357  0.00  0.00     0.217 HD
ENDBRANCH  29  32
BRANCH  31  34
HETATM   34  O   UNL     1      -3.245  10.905  24.995  0.00  0.00    -0.360 OA
HETATM   35  H   UNL     1      -3.926  11.568  25.194  0.00  0.00     0.217 HD
ENDBRANCH  31  34
ENDBRANCH   4  25
TORSDOF 8
ENDMDL
MODEL 2
REMARK VINA RESULT:    -8.714      2.800      6.020
REMARK INTER + INTRA:         -13.631
REMARK INTER:                 -12.485
REMARK INTRA:                  -1.146
REMARK UNBOUND:                -1.351
REMARK  8 active torsions:
REMARK  status: ('A' for Active; 'I' for Inactive)
REMARK    1  A    between atoms: C_2  and  N_3 
REMARK       I    between atoms: N_3  and  C_4 
REMARK    2  A    between atoms: C_4  and  C_6 
REMARK    3  A    between atoms: C_9  and  C_24 
REMARK    4  A    between atoms: C_10  and  C_11 
REMARK    5  A    between atoms: C_14  and  C_15 
REMARK    6  A    between atoms: C_15  and  N_16 
REMARK    7  A    between atoms: C_28  and  O_29 
REMARK    8  A    between atoms: C_31  and  O_32 
ROOT
HETATM    1  C   UNL     1      -0.929  10.377  25.863  0.00  0.00     0.165 A 
HETATM    2  N   UNL     1      -1.249  10.734  27.115  0.00  0.00    -0.121 NA
HETATM    3  O   UNL     1      -0.716   9.775  27.930  0.00  0.00    -0.211 OA
HETATM    4  C   UNL     1      -0.028   8.842  27.206  0.00  0.00     0.128 A 
HETATM    5  C   UNL     1      -0.181   9.141  25.849  0.00  0.00     0.048 A 
ENDROOT
BRANCH   5   6
HETATM    6  C   UNL     1       0.557   8.507  24.750  0.00  0.00    -0.021 C 
HETATM    7  C   UNL     1       0.258   7.212  24.300  0.00  0.00     0.013 C 
HETATM    8  C   UNL     1       1.219   6.468  23.601  0.00  0.00     0.010 C 
HETATM    9  C   UNL     1       2.442   7.046  23.243  0.00  0.00    -0.030 C 
HETATM   10  C   UNL     1       2.629   8.408  23.477  0.00  0.00     0.010 C 
HETATM   11  C   UNL     1       1.708   9.120  24.241  0.00  0.00     0.013 C 
BRANCH   9  12
HETATM   12  C   UNL     1       3.617   6.226  22.759  0.00  0.00     0.311 C 
BRANCH  12  13
HETATM   13  N   UNL     1       3.790   4.925  23.413  0.00  0.00     0.096 N 
HETATM   14  C   UNL     1       3.577   3.790  22.487  0.00  0.00     0.299 C 
HETATM   15  C   UNL     1       4.693   3.608  21.444  0.00  0.00     0.198 C 
HETATM   16  O   UNL     1       5.975   3.478  22.069  0.00  0.00    -0.388 OA
HETATM   17  C   UNL     1       6.257   4.607  22.900  0.00  0.00     0.198 C 
HETATM   18  C   UNL     1       5.162   4.814  23.964  0.00  0.00     0.299 C 
ENDBRANCH  12  13
ENDBRANCH   9  12
ENDBRANCH   5   6
BRANCH   1  19
HETATM   19  C   UNL     1      -1.256  11.293  24.762  0.00  0.00     0.273 C 
HETATM   20  N   UNL     1      -0.280  12.249  24.531  0.00  0.00    -0.356 N 
HETATM   21  H   UNL     1       0.517  12.251  25.159  0.00  0.00     0.162 HD
HETATM   22  O   UNL     1      -2.261  11.185  24.062  0.00  0.00    -0.266 OA
BRANCH  20  23
HETATM   23  C   UNL     1      -0.285  13.114  23.375  0.00  0.00     0.118 C 
HETATM   24  C   UNL     1       0.972  13.965  23.294  0.00  0.00     0.026 C 
ENDBRANCH  20  23
ENDBRANCH   1  19
BRANCH   4  25
HETATM   25  C   UNL     1       0.741   7.918  28.064  0.00  0.00     0.036 A 
HETATM   26  C   UNL     1       0.097   7.114  29.021  0.00  0.00     0.044 A 
HETATM   27  C   UNL     1       0.808   6.204  29.809  0.00  0.00     0.068 A 
HETATM   28 CL   UNL     1      -0.016   5.323  31.041  0.00  0.00    -0.081 Cl
HETATM   29  C   UNL     1       2.168   6.011  29.594  0.00  0.00     0.090 A 
HETATM   30  C   UNL     1       2.836   6.763  28.638  0.00  0.00     0.075 A 
HETATM   31  C   UNL     1       2.132   7.725  27.904  0.00  0.00     0.081 A 
BRANCH  29  32
HETATM   32  O   UNL     1       2.892   5.084  30.288  0.00  0.00    -0.359 OA
HETATM   33  H   UNL     1       2.565   5.089  31.209  0.00  0.00     0.217 HD
ENDBRANCH  29  32
BRANCH  31  34
HETATM   34  O   UNL     1       2.831   8.491  27.008  0.00  0.00    -0.360 OA
HETATM   35  H   UNL     1       2.909   8.021  26.162  0.00  0.00     0.217 HD
ENDBRANCH  31  34
ENDBRANCH   4  25
TORSDOF 8
ENDMDL
MODEL 3
REMARK VINA RESULT:    -7.895      2.756      6.050
REMARK INTER + INTRA:         -12.477
REMARK INTER:                 -11.143
REMARK INTRA:                  -1.334
REMARK UNBOUND:                -1.351
REMARK  8 active torsions:
REMARK  status: ('A' for Active; 'I' for Inactive)
REMARK    1  A    between atoms: C_2  and  N_3 
REMARK       I    between atoms: N_3  and  C_4 
REMARK    2  A    between atoms: C_4  and  C_6 
REMARK    3  A    between atoms: C_9  and  C_24 
REMARK    4  A    between atoms: C_10  and  C_11 
REMARK    5  A    between atoms: C_14  and  C_15 
REMARK    6  A    between atoms: C_15  and  N_16 
REMARK    7  A    between atoms: C_28  and  O_29 
REMARK    8  A    between atoms: C_31  and  O_32 
ROOT
HETATM    1  C   UNL     1      -0.795  10.034  26.166  0.00  0.00     0.165 A 
HETATM    2  N   UNL     1      -1.156  10.501  27.370  0.00  0.00    -0.121 NA
HETATM    3  O   UNL     1      -0.668   9.611  28.284  0.00  0.00    -0.211 OA
HETATM    4  C   UNL     1       0.033   8.610  27.670  0.00  0.00     0.128 A 
HETATM    5  C   UNL     1      -0.066   8.793  26.287  0.00  0.00     0.048 A 
ENDROOT
BRANCH   5   6
HETATM    6  C   UNL     1       0.704   8.058  25.276  0.00  0.00    -0.021 C 
HETATM    7  C   UNL     1       0.261   6.839  24.741  0.00  0.00     0.013 C 
HETATM    8  C   UNL     1       1.173   5.953  24.152  0.00  0.00     0.010 C 
HETATM    9  C   UNL     1       2.513   6.320  23.985  0.00  0.00    -0.030 C 
HETATM   10  C   UNL     1       2.889   7.628  24.292  0.00  0.00     0.010 C 
HETATM   11  C   UNL     1       2.001   8.475  24.950  0.00  0.00     0.013 C 
BRANCH   9  12
HETATM   12  C   UNL     1       3.592   5.320  23.635  0.00  0.00     0.311 C 
BRANCH  12  13
HETATM   13  N   UNL     1       4.458   5.694  22.513  0.00  0.00     0.096 N 
HETATM   14  C   UNL     1       5.631   4.802  22.377  0.00  0.00     0.299 C 
HETATM   15  C   UNL     1       5.296   3.389  21.871  0.00  0.00     0.198 C 
HETATM   16  O   UNL     1       4.587   3.434  20.628  0.00  0.00    -0.388 OA
HETATM   17  C   UNL     1       3.392   4.212  20.747  0.00  0.00     0.198 C 
HETATM   18  C   UNL     1       3.693   5.639  21.243  0.00  0.00     0.299 C 
ENDBRANCH  12  13
ENDBRANCH   9  12
ENDBRANCH   5   6
BRANCH   1  19
HETATM   19  C   UNL     1      -1.067  10.856  24.979  0.00  0.00     0.273 C 
HETATM   20  N   UNL     1      -0.030  11.716  24.654  0.00  0.00    -0.356 N 
HETATM   21  H   UNL     1       0.769  11.727  25.279  0.00  0.00     0.162 HD
HETATM   22  O   UNL     1      -2.082  10.747  24.293  0.00  0.00    -0.266 OA
BRANCH  20  23
HETATM   23  C   UNL     1       0.015  12.460  23.417  0.00  0.00     0.118 C 
HETATM   24  C   UNL     1       0.753  13.780  23.572  0.00  0.00     0.026 C 
ENDBRANCH  20  23
ENDBRANCH   1  19
BRANCH   4  25
HETATM   25  C   UNL     1       0.755   7.755  28.633  0.00  0.00     0.036 A 
HETATM   26  C   UNL     1       0.061   6.871  29.478  0.00  0.00     0.044 A 
HETATM   27  C   UNL     1       0.736   6.024  30.362  0.00  0.00     0.068 A 
HETATM   28 CL   UNL     1      -0.168   5.039  31.451  0.00  0.00    -0.081 Cl
HETATM   29  C   UNL     1       2.126   5.978  30.357  0.00  0.00     0.090 A 
HETATM   30  C   UNL     1       2.849   6.812  29.517  0.00  0.00     0.075 A 
HETATM   31  C   UNL     1       2.167   7.710  28.687  0.00  0.00     0.081 A 
BRANCH  29  32
HETATM   32  O   UNL     1       2.830   5.117  31.152  0.00  0.00    -0.359 OA
HETATM   33  H   UNL     1       2.782   5.460  32.065  0.00  0.00     0.217 HD
ENDBRANCH  29  32
BRANCH  31  34
HETATM   34  O   UNL     1       2.910   8.562  27.911  0.00  0.00    -0.360 OA
HETATM   35  H   UNL     1       2.909   9.450  28.304  0.00  0.00     0.217 HD
ENDBRANCH  31  34
ENDBRANCH   4  25
TORSDOF 8
ENDMDL
MODEL 4
REMARK VINA RESULT:    -7.500      2.624      6.858
REMARK INTER + INTRA:         -11.920
REMARK INTER:                 -10.631
REMARK INTRA:                  -1.289
REMARK UNBOUND:                -1.351
REMARK  8 active torsions:
REMARK  status: ('A' for Active; 'I' for Inactive)
REMARK    1  A    between atoms: C_2  and  N_3 
REMARK       I    between atoms: N_3  and  C_4 
REMARK    2  A    between atoms: C_4  and  C_6 
REMARK    3  A    between atoms: C_9  and  C_24 
REMARK    4  A    between atoms: C_10  and  C_11 
REMARK    5  A    between atoms: C_14  and  C_15 
REMARK    6  A    between atoms: C_15  and  N_16 
REMARK    7  A    between atoms: C_28  and  O_29 
REMARK    8  A    between atoms: C_31  and  O_32 
ROOT
HETATM    1  C   UNL     1       2.561   6.377  28.351  0.00  0.00     0.165 A 
HETATM    2  N   UNL     1       3.327   5.278  28.287  0.00  0.00    -0.121 NA
HETATM    3  O   UNL     1       3.336   4.898  26.975  0.00  0.00    -0.211 OA
HETATM    4  C   UNL     1       2.619   5.770  26.205  0.00  0.00     0.128 A 
HETATM    5  C   UNL     1       2.036   6.721  27.049  0.00  0.00     0.048 A 
ENDROOT
BRANCH   5   6
HETATM    6  C   UNL     1       1.355   7.944  26.609  0.00  0.00    -0.021 C 
HETATM    7  C   UNL     1      -0.002   8.180  26.876  0.00  0.00     0.013 C 
HETATM    8  C   UNL     1      -0.729   9.086  26.092  0.00  0.00     0.010 C 
HETATM    9  C   UNL     1      -0.088   9.851  25.111  0.00  0.00    -0.030 C 
HETATM   10  C   UNL     1       1.303   9.791  25.024  0.00  0.00     0.010 C 
HETATM   11  C   UNL     1       2.009   8.833  25.747  0.00  0.00     0.013 C 
BRANCH   9  12
HETATM   12  C   UNL     1      -0.848  10.615  24.050  0.00  0.00     0.311 C 
BRANCH  12  13
HETATM   13  N   UNL     1      -1.052  12.040  24.324  0.00  0.00     0.096 N 
HETATM   14  C   UNL     1       0.045  12.884  23.800  0.00  0.00     0.299 C 
HETATM   15  C   UNL     1       0.072  13.006  22.267  0.00  0.00     0.198 C 
HETATM   16  O   UNL     1      -1.179  13.484  21.759  0.00  0.00    -0.388 OA
HETATM   17  C   UNL     1      -2.256  12.635  22.168  0.00  0.00     0.198 C 
HETATM   18  C   UNL     1      -2.318  12.499  23.702  0.00  0.00     0.299 C 
ENDBRANCH  12  13
ENDBRANCH   9  12
ENDBRANCH   5   6
BRANCH   1  19
HETATM   19  C   UNL     1       2.468   7.100  29.626  0.00  0.00     0.273 C 
HETATM   20  N   UNL     1       1.327   6.796  30.351  0.00  0.00    -0.356 N 
HETATM   21  H   UNL     1       0.665   6.160  29.918  0.00  0.00     0.162 HD
HETATM   22  O   UNL     1       3.346   7.849  30.050  0.00  0.00    -0.266 OA
BRANCH  20  23
HETATM   23  C   UNL     1       1.127   7.219  31.716  0.00  0.00     0.118 C 
HETATM   24  C   UNL     1       0.376   6.180  32.533  0.00  0.00     0.026 C 
ENDBRANCH  20  23
ENDBRANCH   1  19
BRANCH   4  25
HETATM   25  C   UNL     1       2.786   5.516  24.760  0.00  0.00     0.036 A 
HETATM   26  C   UNL     1       3.330   6.496  23.911  0.00  0.00     0.044 A 
HETATM   27  C   UNL     1       3.534   6.251  22.550  0.00  0.00     0.068 A 
HETATM   28 CL   UNL     1       4.103   7.524  21.535  0.00  0.00    -0.081 Cl
HETATM   29  C   UNL     1       3.283   4.989  22.024  0.00  0.00     0.090 A 
HETATM   30  C   UNL     1       2.774   3.984  22.835  0.00  0.00     0.075 A 
HETATM   31  C   UNL     1       2.502   4.258  24.181  0.00  0.00     0.081 A 
BRANCH  29  32
HETATM   32  O   UNL     1       3.533   4.680  20.717  0.00  0.00    -0.359 OA
HETATM   33  H   UNL     1       3.808   3.743  20.686  0.00  0.00     0.217 HD
ENDBRANCH  29  32
BRANCH  31  34
HETATM   34  O   UNL     1       1.946   3.263  24.941  0.00  0.00    -0.360 OA
HETATM   35  H   UNL     1       1.837   2.461  24.405  0.00  0.00     0.217 HD
ENDBRANCH  31  34
ENDBRANCH   4  25
TORSDOF 8
ENDMDL
MODEL 5
REMARK VINA RESULT:    -7.437      2.451      7.212
REMARK INTER + INTRA:         -11.831
REMARK INTER:                 -10.477
REMARK INTRA:                  -1.354
REMARK UNBOUND:                -1.351
REMARK  8 active torsions:
REMARK  status: ('A' for Active; 'I' for Inactive)
REMARK    1  A    between atoms: C_2  and  N_3 
REMARK       I    between atoms: N_3  and  C_4 
REMARK    2  A    between atoms: C_4  and  C_6 
REMARK    3  A    between atoms: C_9  and  C_24 
REMARK    4  A    between atoms: C_10  and  C_11 
REMARK    5  A    between atoms: C_14  and  C_15 
REMARK    6  A    between atoms: C_15  and  N_16 
REMARK    7  A    between atoms: C_28  and  O_29 
REMARK    8  A    between atoms: C_31  and  O_32 
ROOT
HETATM    1  C   UNL     1       3.742   4.553  25.811  0.00  0.00     0.165 A 
HETATM    2  N   UNL     1       4.603   3.716  25.213  0.00  0.00    -0.121 NA
HETATM    3  O   UNL     1       4.498   3.958  23.873  0.00  0.00    -0.211 OA
HETATM    4  C   UNL     1       3.611   4.968  23.623  0.00  0.00     0.128 A 
HETATM    5  C   UNL     1       3.037   5.356  24.838  0.00  0.00     0.048 A 
ENDROOT
BRANCH   5   6
HETATM    6  C   UNL     1       2.189   6.536  25.038  0.00  0.00    -0.021 C 
HETATM    7  C   UNL     1       0.791   6.444  25.131  0.00  0.00     0.013 C 
HETATM    8  C   UNL     1      -0.009   7.564  24.867  0.00  0.00     0.010 C 
HETATM    9  C   UNL     1       0.573   8.812  24.622  0.00  0.00    -0.030 C 
HETATM   10  C   UNL     1       1.953   8.945  24.777  0.00  0.00     0.010 C 
HETATM   11  C   UNL     1       2.749   7.818  24.959  0.00  0.00     0.013 C 
BRANCH   9  12
HETATM   12  C   UNL     1      -0.206   9.974  24.048  0.00  0.00     0.311 C 
BRANCH  12  13
HETATM   13  N   UNL     1      -0.661  10.970  25.023  0.00  0.00     0.096 N 
HETATM   14  C   UNL     1       0.074  12.250  24.915  0.00  0.00     0.299 C 
HETATM   15  C   UNL     1      -0.266  13.071  23.660  0.00  0.00     0.198 C 
HETATM   16  O   UNL     1      -1.673  13.322  23.565  0.00  0.00    -0.388 OA
HETATM   17  C   UNL     1      -2.413  12.098  23.571  0.00  0.00     0.198 C 
HETATM   18  C   UNL     1      -2.103  11.254  24.822  0.00  0.00     0.299 C 
ENDBRANCH  12  13
ENDBRANCH   9  12
ENDBRANCH   5   6
BRANCH   1  19
HETATM   19  C   UNL     1       3.725   4.620  27.278  0.00  0.00     0.273 C 
HETATM   20  N   UNL     1       3.346   5.859  27.770  0.00  0.00    -0.356 N 
HETATM   21  H   UNL     1       3.172   6.589  27.087  0.00  0.00     0.162 HD
HETATM   22  O   UNL     1       3.951   3.656  28.006  0.00  0.00    -0.266 OA
BRANCH  20  23
HETATM   23  C   UNL     1       3.054   6.096  29.163  0.00  0.00     0.118 C 
HETATM   24  C   UNL     1       2.742   7.557  29.441  0.00  0.00     0.026 C 
ENDBRANCH  20  23
ENDBRANCH   1  19
BRANCH   4  25
HETATM   25  C   UNL     1       3.635   5.402  22.212  0.00  0.00     0.036 A 
HETATM   26  C   UNL     1       4.095   6.682  21.856  0.00  0.00     0.044 A 
HETATM   27  C   UNL     1       4.163   7.088  20.520  0.00  0.00     0.068 A 
HETATM   28 CL   UNL     1       4.633   8.705  20.148  0.00  0.00    -0.081 Cl
HETATM   29  C   UNL     1       3.858   6.191  19.503  0.00  0.00     0.090 A 
HETATM   30  C   UNL     1       3.428   4.908  19.811  0.00  0.00     0.075 A 
HETATM   31  C   UNL     1       3.291   4.532  21.152  0.00  0.00     0.081 A 
BRANCH  29  32
HETATM   32  O   UNL     1       3.977   6.519  18.181  0.00  0.00    -0.359 OA
HETATM   33  H   UNL     1       4.901   6.342  17.920  0.00  0.00     0.217 HD
ENDBRANCH  29  32
BRANCH  31  34
HETATM   34  O   UNL     1       2.810   3.278  21.423  0.00  0.00    -0.360 OA
HETATM   35  H   UNL     1       2.347   2.928  20.645  0.00  0.00     0.217 HD
ENDBRANCH  31  34
ENDBRANCH   4  25
TORSDOF 8
ENDMDL
MODEL 6
REMARK VINA RESULT:    -7.301      3.100      6.672
REMARK INTER + INTRA:         -11.640
REMARK INTER:                 -10.556
REMARK INTRA:                  -1.083
REMARK UNBOUND:                -1.351
REMARK  8 active torsions:
REMARK  status: ('A' for Active; 'I' for Inactive)
REMARK    1  A    between atoms: C_2  and  N_3 
REMARK       I    between atoms: N_3  and  C_4 
REMARK    2  A    between atoms: C_4  and  C_6 
REMARK    3  A    between atoms: C_9  and  C_24 
REMARK    4  A    between atoms: C_10  and  C_11 
REMARK    5  A    between atoms: C_14  and  C_15 
REMARK    6  A    between atoms: C_15  and  N_16 
REMARK    7  A    between atoms: C_28  and  O_29 
REMARK    8  A    between atoms: C_31  and  O_32 
ROOT
HETATM    1  C   UNL     1       2.038   6.269  28.353  0.00  0.00     0.165 A 
HETATM    2  N   UNL     1       3.121   5.484  28.259  0.00  0.00    -0.121 NA
HETATM    3  O   UNL     1       3.358   5.323  26.923  0.00  0.00    -0.211 OA
HETATM    4  C   UNL     1       2.462   6.035  26.175  0.00  0.00     0.128 A 
HETATM    5  C   UNL     1       1.537   6.622  27.044  0.00  0.00     0.048 A 
ENDROOT
BRANCH   5   6
HETATM    6  C   UNL     1       0.535   7.625  26.666  0.00  0.00    -0.021 C 
HETATM    7  C   UNL     1      -0.154   7.568  25.444  0.00  0.00     0.013 C 
HETATM    8  C   UNL     1      -0.740   8.724  24.910  0.00  0.00     0.010 C 
HETATM    9  C   UNL     1      -0.747   9.918  25.638  0.00  0.00    -0.030 C 
HETATM   10  C   UNL     1      -0.282   9.900  26.952  0.00  0.00     0.010 C 
HETATM   11  C   UNL     1       0.371   8.775  27.449  0.00  0.00     0.013 C 
BRANCH   9  12
HETATM   12  C   UNL     1      -1.092  11.250  25.010  0.00  0.00     0.311 C 
BRANCH  12  13
HETATM   13  N   UNL     1      -0.433  11.534  23.731  0.00  0.00     0.096 N 
HETATM   14  C   UNL     1      -0.644  12.927  23.278  0.00  0.00     0.299 C 
HETATM   15  C   UNL     1       0.117  13.980  24.101  0.00  0.00     0.198 C 
HETATM   16  O   UNL     1       1.521  13.700  24.137  0.00  0.00    -0.388 OA
HETATM   17  C   UNL     1       1.769  12.392  24.661  0.00  0.00     0.198 C 
HETATM   18  C   UNL     1       1.028  11.309  23.854  0.00  0.00     0.299 C 
ENDBRANCH  12  13
ENDBRANCH   9  12
ENDBRANCH   5   6
BRANCH   1  19
HETATM   19  C   UNL     1       1.613   6.730  29.680  0.00  0.00     0.273 C 
HETATM   20  N   UNL     1       0.705   5.883  30.295  0.00  0.00    -0.356 N 
HETATM   21  H   UNL     1       0.396   5.077  29.761  0.00  0.00     0.162 HD
HETATM   22  O   UNL     1       2.068   7.731  30.232  0.00  0.00    -0.266 OA
BRANCH  20  23
HETATM   23  C   UNL     1       0.313   6.020  31.677  0.00  0.00     0.118 C 
HETATM   24  C   UNL     1      -0.293   4.739  32.229  0.00  0.00     0.026 C 
ENDBRANCH  20  23
ENDBRANCH   1  19
BRANCH   4  25
HETATM   25  C   UNL     1       2.819   6.062  24.743  0.00  0.00     0.036 A 
HETATM   26  C   UNL     1       2.708   4.907  23.947  0.00  0.00     0.044 A 
HETATM   27  C   UNL     1       3.001   4.931  22.581  0.00  0.00     0.068 A 
HETATM   28 CL   UNL     1       2.952   3.463  21.677  0.00  0.00    -0.081 Cl
HETATM   29  C   UNL     1       3.324   6.131  21.959  0.00  0.00     0.090 A 
HETATM   30  C   UNL     1       3.415   7.300  22.702  0.00  0.00     0.075 A 
HETATM   31  C   UNL     1       3.193   7.255  24.084  0.00  0.00     0.081 A 
BRANCH  29  32
HETATM   32  O   UNL     1       3.550   6.219  20.613  0.00  0.00    -0.359 OA
HETATM   33  H   UNL     1       3.097   5.463  20.193  0.00  0.00     0.217 HD
ENDBRANCH  29  32
BRANCH  31  34
HETATM   34  O   UNL     1       3.347   8.414  24.799  0.00  0.00    -0.360 OA
HETATM   35  H   UNL     1       3.423   8.209  25.745  0.00  0.00     0.217 HD
ENDBRANCH  31  34
ENDBRANCH   4  25
TORSDOF 8
ENDMDL
MODEL 7
REMARK VINA RESULT:    -6.818      2.686      6.216
REMARK INTER + INTRA:         -10.960
REMARK INTER:                  -9.609
REMARK INTRA:                  -1.351
REMARK UNBOUND:                -1.351
REMARK  8 active torsions:
REMARK  status: ('A' for Active; 'I' for Inactive)
REMARK    1  A    between atoms: C_2  and  N_3 
REMARK       I    between atoms: N_3  and  C_4 
REMARK    2  A    between atoms: C_4  and  C_6 
REMARK    3  A    between atoms: C_9  and  C_24 
REMARK    4  A    between atoms: C_10  and  C_11 
REMARK    5  A    between atoms: C_14  and  C_15 
REMARK    6  A    between atoms: C_15  and  N_16 
REMARK    7  A    between atoms: C_28  and  O_29 
REMARK    8  A    between atoms: C_31  and  O_32 
ROOT
HETATM    1  C   UNL     1       2.373   6.246  24.632  0.00  0.00     0.165 A 
HETATM    2  N   UNL     1       2.405   6.572  23.332  0.00  0.00    -0.121 NA
HETATM    3  O   UNL     1       1.777   7.780  23.228  0.00  0.00    -0.211 OA
HETATM    4  C   UNL     1       1.387   8.240  24.455  0.00  0.00     0.128 A 
HETATM    5  C   UNL     1       1.690   7.259  25.405  0.00  0.00     0.048 A 
ENDROOT
BRANCH   5   6
HETATM    6  C   UNL     1       1.617   7.435  26.860  0.00  0.00    -0.021 C 
HETATM    7  C   UNL     1       2.607   8.122  27.579  0.00  0.00     0.013 C 
HETATM    8  C   UNL     1       2.767   7.897  28.953  0.00  0.00     0.010 C 
HETATM    9  C   UNL     1       1.871   7.076  29.647  0.00  0.00    -0.030 C 
HETATM   10  C   UNL     1       0.747   6.598  28.974  0.00  0.00     0.010 C 
HETATM   11  C   UNL     1       0.636   6.757  27.595  0.00  0.00     0.013 C 
BRANCH   9  12
HETATM   12  C   UNL     1       2.153   6.563  31.041  0.00  0.00     0.311 C 
BRANCH  12  13
HETATM   13  N   UNL     1       2.482   5.137  31.134  0.00  0.00     0.096 N 
HETATM   14  C   UNL     1       3.465   4.712  30.112  0.00  0.00     0.299 C 
HETATM   15  C   UNL     1       4.891   5.234  30.351  0.00  0.00     0.198 C 
HETATM   16  O   UNL     1       5.370   4.869  31.651  0.00  0.00    -0.388 OA
HETATM   17  C   UNL     1       4.492   5.348  32.673  0.00  0.00     0.198 C 
HETATM   18  C   UNL     1       3.053   4.835  32.469  0.00  0.00     0.299 C 
ENDBRANCH  12  13
ENDBRANCH   9  12
ENDBRANCH   5   6
BRANCH   1  19
HETATM   19  C   UNL     1       3.094   5.048  25.079  0.00  0.00     0.273 C 
HETATM   20  N   UNL     1       4.365   4.935  24.538  0.00  0.00    -0.356 N 
HETATM   21  H   UNL     1       4.643   5.645  23.869  0.00  0.00     0.162 HD
HETATM   22  O   UNL     1       2.650   4.254  25.907  0.00  0.00    -0.266 OA
BRANCH  20  23
HETATM   23  C   UNL     1       5.329   3.961  24.992  0.00  0.00     0.118 C 
HETATM   24  C   UNL     1       6.607   3.995  24.169  0.00  0.00     0.026 C 
ENDBRANCH  20  23
ENDBRANCH   1  19
BRANCH   4  25
HETATM   25  C   UNL     1       0.904   9.634  24.407  0.00  0.00     0.036 A 
HETATM   26  C   UNL     1       1.753  10.681  24.007  0.00  0.00     0.044 A 
HETATM   27  C   UNL     1       1.295  11.999  23.916  0.00  0.00     0.068 A 
HETATM   28 CL   UNL     1       2.405  13.258  23.525  0.00  0.00    -0.081 Cl
HETATM   29  C   UNL     1      -0.048  12.286  24.135  0.00  0.00     0.090 A 
HETATM   30  C   UNL     1      -0.926  11.276  24.503  0.00  0.00     0.075 A 
HETATM   31  C   UNL     1      -0.445   9.971  24.664  0.00  0.00     0.081 A 
BRANCH  29  32
HETATM   32  O   UNL     1      -0.558  13.545  23.989  0.00  0.00    -0.359 OA
HETATM   33  H   UNL     1      -1.405  13.462  23.510  0.00  0.00     0.217 HD
ENDBRANCH  29  32
BRANCH  31  34
HETATM   34  O   UNL     1      -1.324   9.007  25.084  0.00  0.00    -0.360 OA
HETATM   35  H   UNL     1      -0.964   8.127  24.890  0.00  0.00     0.217 HD
ENDBRANCH  31  34
ENDBRANCH   4  25
TORSDOF 8
ENDMDL
