MODEL 1
REMARK VINA RESULT:    -9.521      0.000      0.000
REMARK INTER + INTRA:         -12.256
REMARK INTER:                 -11.346
REMARK INTRA:                  -0.910
REMARK UNBOUND:                -1.065
REMARK  3 active torsions:
REMARK  status: ('A' for Active; 'I' for Inactive)
REMARK       I    between atoms: C_2  and  N_3 
REMARK    1  A    between atoms: C_2  and  C_27 
REMARK    2  A    between atoms: N_3  and  C_4 
REMARK    3  A    between atoms: C_16  and  C_17 
ROOT
HETATM    1  C   UNL     1       7.424  14.659  22.668  0.00  0.00     0.153 A 
HETATM    2  C   UNL     1       5.986  14.201  22.754  0.00  0.00    -0.020 A 
HETATM    3  C   UNL     1       4.990  14.733  23.565  0.00  0.00     0.010 A 
HETATM    4  C   UNL     1       3.709  14.198  23.472  0.00  0.00     0.001 A 
HETATM    5  C   UNL     1       3.445  13.155  22.578  0.00  0.00     0.001 A 
HETATM    6  C   UNL     1       4.454  12.639  21.753  0.00  0.00     0.013 A 
HETATM    7  C   UNL     1       5.739  13.152  21.837  0.00  0.00    -0.016 A 
HETATM    8  C   UNL     1       6.966  12.870  21.086  0.00  0.00    -0.003 A 
HETATM    9  C   UNL     1       7.944  13.816  21.512  0.00  0.00    -0.019 A 
HETATM   10  C   UNL     1       9.209  13.901  20.948  0.00  0.00     0.010 A 
HETATM   11  C   UNL     1       9.546  12.985  19.963  0.00  0.00     0.002 A 
HETATM   12  C   UNL     1       8.621  12.007  19.564  0.00  0.00     0.016 A 
HETATM   13  C   UNL     1       7.313  11.934  20.102  0.00  0.00     0.022 A 
ENDROOT
BRANCH   1  14
HETATM   14  N   UNL     1       8.162  14.333  23.869  0.00  0.00    -0.344 N 
HETATM   15  C   UNL     1       9.326  14.971  24.210  0.00  0.00     0.252 C 
HETATM   16  O   UNL     1       9.812  15.893  23.570  0.00  0.00    -0.268 OA
HETATM   17  H   UNL     1       7.805  13.570  24.424  0.00  0.00     0.163 HD
BRANCH  15  18
HETATM   18  C   UNL     1      10.051  14.414  25.383  0.00  0.00     0.034 A 
HETATM   19  C   UNL     1      10.388  13.063  25.486  0.00  0.00     0.036 A 
HETATM   20  C   UNL     1      11.135  12.668  26.583  0.00  0.00     0.117 A 
HETATM   21  N   UNL     1      11.552  13.511  27.551  0.00  0.00    -0.273 NA
HETATM   22  C   UNL     1      11.185  14.806  27.440  0.00  0.00     0.117 A 
HETATM   23  C   UNL     1      10.434  15.299  26.390  0.00  0.00     0.036 A 
ENDBRANCH  15  18
ENDBRANCH   1  14
BRANCH  13  24
HETATM   24  C   UNL     1       6.424  10.867  19.630  0.00  0.00     0.140 A 
HETATM   25  N   UNL     1       5.710  10.859  18.521  0.00  0.00    -0.227 NA
HETATM   26  C   UNL     1       5.047   9.655  18.487  0.00  0.00     0.103 A 
HETATM   27  C   UNL     1       4.211   9.103  17.516  0.00  0.00     0.150 A 
HETATM   28  C   UNL     1       5.302   8.927  19.642  0.00  0.00     0.065 A 
HETATM   29  N   UNL     1       3.632   7.889  17.721  0.00  0.00    -0.271 NA
HETATM   30  C   UNL     1       3.885   7.235  18.880  0.00  0.00     0.118 A 
HETATM   31  C   UNL     1       4.722   7.689  19.893  0.00  0.00     0.051 A 
HETATM   32  N   UNL     1       6.187   9.706  20.342  0.00  0.00    -0.338 N 
HETATM   33  H   UNL     1       6.613   9.468  21.224  0.00  0.00     0.167 HD
ENDBRANCH  13  24
TORSDOF 3
ENDMDL
MODEL 2
REMARK VINA RESULT:    -8.858      3.312      4.421
REMARK INTER + INTRA:         -11.476
REMARK INTER:                 -10.538
REMARK INTRA:                  -0.938
REMARK UNBOUND:                -1.065
REMARK  3 active torsions:
REMARK  status: ('A' for Active; 'I' for Inactive)
REMARK       I    between atoms: C_2  and  N_3 
REMARK    1  A    between atoms: C_2  and  C_27 
REMARK    2  A    between atoms: N_3  and  C_4 
REMARK    3  A    between atoms: C_16  and  C_17 
ROOT
HETATM    1  C   UNL     1       6.451  14.630  22.535  0.00  0.00     0.153 A 
HETATM    2  C   UNL     1       5.300  14.828  23.493  0.00  0.00    -0.020 A 
HETATM    3  C   UNL     1       4.844  16.037  24.008  0.00  0.00     0.010 A 
HETATM    4  C   UNL     1       3.736  16.019  24.850  0.00  0.00     0.001 A 
HETATM    5  C   UNL     1       3.106  14.808  25.158  0.00  0.00     0.001 A 
HETATM    6  C   UNL     1       3.565  13.598  24.619  0.00  0.00     0.013 A 
HETATM    7  C   UNL     1       4.672  13.594  23.786  0.00  0.00    -0.016 A 
HETATM    8  C   UNL     1       5.342  12.526  23.038  0.00  0.00    -0.003 A 
HETATM    9  C   UNL     1       6.340  13.143  22.230  0.00  0.00    -0.019 A 
HETATM   10  C   UNL     1       7.118  12.439  21.320  0.00  0.00     0.010 A 
HETATM   11  C   UNL     1       6.945  11.066  21.241  0.00  0.00     0.002 A 
HETATM   12  C   UNL     1       6.007  10.425  22.066  0.00  0.00     0.016 A 
HETATM   13  C   UNL     1       5.178  11.135  22.969  0.00  0.00     0.022 A 
ENDROOT
BRANCH   1  14
HETATM   14  N   UNL     1       7.725  14.895  23.168  0.00  0.00    -0.344 N 
HETATM   15  C   UNL     1       8.823  15.313  22.462  0.00  0.00     0.252 C 
HETATM   16  O   UNL     1       8.812  15.546  21.261  0.00  0.00    -0.268 OA
HETATM   17  H   UNL     1       7.785  14.706  24.158  0.00  0.00     0.163 HD
BRANCH  15  18
HETATM   18  C   UNL     1      10.097  15.385  23.225  0.00  0.00     0.034 A 
HETATM   19  C   UNL     1      10.135  15.456  24.618  0.00  0.00     0.036 A 
HETATM   20  C   UNL     1      11.378  15.435  25.229  0.00  0.00     0.117 A 
HETATM   21  N   UNL     1      12.545  15.353  24.556  0.00  0.00    -0.273 NA
HETATM   22  C   UNL     1      12.477  15.316  23.208  0.00  0.00     0.117 A 
HETATM   23  C   UNL     1      11.289  15.339  22.503  0.00  0.00     0.036 A 
ENDBRANCH  15  18
ENDBRANCH   1  14
BRANCH  13  24
HETATM   24  C   UNL     1       4.238  10.373  23.797  0.00  0.00     0.140 A 
HETATM   25  N   UNL     1       4.533   9.557  24.791  0.00  0.00    -0.227 NA
HETATM   26  C   UNL     1       3.339   9.084  25.280  0.00  0.00     0.103 A 
HETATM   27  C   UNL     1       3.068   8.244  26.361  0.00  0.00     0.150 A 
HETATM   28  C   UNL     1       2.278   9.565  24.524  0.00  0.00     0.065 A 
HETATM   29  N   UNL     1       1.786   7.879  26.639  0.00  0.00    -0.271 NA
HETATM   30  C   UNL     1       0.790   8.348  25.849  0.00  0.00     0.118 A 
HETATM   31  C   UNL     1       0.957   9.207  24.770  0.00  0.00     0.051 A 
HETATM   32  N   UNL     1       2.869  10.390  23.603  0.00  0.00    -0.338 N 
HETATM   33  H   UNL     1       2.388  10.937  22.906  0.00  0.00     0.167 HD
ENDBRANCH  13  24
TORSDOF 3
ENDMDL
MODEL 3
REMARK VINA RESULT:    -8.833      3.306      4.274
REMARK INTER + INTRA:         -11.447
REMARK INTER:                 -10.481
REMARK INTRA:                  -0.966
REMARK UNBOUND:                -1.065
REMARK  3 active torsions:
REMARK  status: ('A' for Active; 'I' for Inactive)
REMARK       I    between atoms: C_2  and  N_3 
REMARK    1  A    between atoms: C_2  and  C_27 
REMARK    2  A    between atoms: N_3  and  C_4 
REMARK    3  A    between atoms: C_16  and  C_17 
ROOT
HETATM    1  C   UNL     1       6.521  14.656  22.515  0.00  0.00     0.153 A 
HETATM    2  C   UNL     1       5.388  14.882  23.490  0.00  0.00    -0.020 A 
HETATM    3  C   UNL     1       5.000  16.095  24.048  0.00  0.00     0.010 A 
HETATM    4  C   UNL     1       3.899  16.107  24.899  0.00  0.00     0.001 A 
HETATM    5  C   UNL     1       3.208  14.921  25.173  0.00  0.00     0.001 A 
HETATM    6  C   UNL     1       3.599  13.708  24.590  0.00  0.00     0.013 A 
HETATM    7  C   UNL     1       4.698  13.674  23.747  0.00  0.00    -0.016 A 
HETATM    8  C   UNL     1       5.305  12.597  22.958  0.00  0.00    -0.003 A 
HETATM    9  C   UNL     1       6.329  13.188  22.162  0.00  0.00    -0.019 A 
HETATM   10  C   UNL     1       7.062  12.475  21.223  0.00  0.00     0.010 A 
HETATM   11  C   UNL     1       6.816  11.116  21.099  0.00  0.00     0.002 A 
HETATM   12  C   UNL     1       5.851  10.498  21.911  0.00  0.00     0.016 A 
HETATM   13  C   UNL     1       5.068  11.220  22.844  0.00  0.00     0.022 A 
ENDROOT
BRANCH   1  14
HETATM   14  N   UNL     1       7.811  14.832  23.145  0.00  0.00    -0.344 N 
HETATM   15  C   UNL     1       8.885  15.366  22.481  0.00  0.00     0.252 C 
HETATM   16  O   UNL     1       8.837  15.782  21.331  0.00  0.00    -0.268 OA
HETATM   17  H   UNL     1       7.901  14.492  24.091  0.00  0.00     0.163 HD
BRANCH  15  18
HETATM   18  C   UNL     1      10.181  15.331  23.209  0.00  0.00     0.034 A 
HETATM   19  C   UNL     1      11.411  15.283  22.552  0.00  0.00     0.036 A 
HETATM   20  C   UNL     1      12.557  15.338  23.326  0.00  0.00     0.117 A 
HETATM   21  N   UNL     1      12.550  15.432  24.673  0.00  0.00    -0.273 NA
HETATM   22  C   UNL     1      11.345  15.447  25.283  0.00  0.00     0.117 A 
HETATM   23  C   UNL     1      10.145  15.389  24.602  0.00  0.00     0.036 A 
ENDBRANCH  15  18
ENDBRANCH   1  14
BRANCH  13  24
HETATM   24  C   UNL     1       4.095  10.482  23.655  0.00  0.00     0.140 A 
HETATM   25  N   UNL     1       2.780  10.547  23.576  0.00  0.00    -0.227 NA
HETATM   26  C   UNL     1       2.284   9.674  24.516  0.00  0.00     0.103 A 
HETATM   27  C   UNL     1       0.971   9.307  24.814  0.00  0.00     0.150 A 
HETATM   28  C   UNL     1       3.320   9.105  25.245  0.00  0.00     0.065 A 
HETATM   29  N   UNL     1       0.718   8.434  25.826  0.00  0.00    -0.271 NA
HETATM   30  C   UNL     1       1.762   7.934  26.531  0.00  0.00     0.118 A 
HETATM   31  C   UNL     1       3.101   8.218  26.293  0.00  0.00     0.051 A 
HETATM   32  N   UNL     1       4.455   9.618  24.674  0.00  0.00    -0.338 N 
HETATM   33  H   UNL     1       5.402   9.392  24.936  0.00  0.00     0.167 HD
ENDBRANCH  13  24
TORSDOF 3
ENDMDL
MODEL 4
REMARK VINA RESULT:    -8.824      4.065      7.791
REMARK INTER + INTRA:         -11.436
REMARK INTER:                 -10.672
REMARK INTRA:                  -0.764
REMARK UNBOUND:                -1.065
REMARK  3 active torsions:
REMARK  status: ('A' for Active; 'I' for Inactive)
REMARK       I    between atoms: C_2  and  N_3 
REMARK    1  A    between atoms: C_2  and  C_27 
REMARK    2  A    between atoms: N_3  and  C_4 
REMARK    3  A    between atoms: C_16  and  C_17 
ROOT
HETATM    1  C   UNL     1       3.177  13.011  24.672  0.00  0.00     0.153 A 
HETATM    2  C   UNL     1       4.051  14.153  24.206  0.00  0.00    -0.020 A 
HETATM    3  C   UNL     1       3.748  15.509  24.261  0.00  0.00     0.010 A 
HETATM    4  C   UNL     1       4.705  16.417  23.818  0.00  0.00     0.001 A 
HETATM    5  C   UNL     1       5.938  15.961  23.337  0.00  0.00     0.001 A 
HETATM    6  C   UNL     1       6.237  14.592  23.303  0.00  0.00     0.013 A 
HETATM    7  C   UNL     1       5.294  13.672  23.731  0.00  0.00    -0.016 A 
HETATM    8  C   UNL     1       5.328  12.213  23.870  0.00  0.00    -0.003 A 
HETATM    9  C   UNL     1       4.113  11.823  24.505  0.00  0.00    -0.019 A 
HETATM   10  C   UNL     1       3.839  10.514  24.874  0.00  0.00     0.010 A 
HETATM   11  C   UNL     1       4.773   9.539  24.558  0.00  0.00     0.002 A 
HETATM   12  C   UNL     1       5.954   9.886  23.882  0.00  0.00     0.016 A 
HETATM   13  C   UNL     1       6.265  11.224  23.536  0.00  0.00     0.022 A 
ENDROOT
BRANCH   1  14
HETATM   14  N   UNL     1       2.024  12.837  23.815  0.00  0.00    -0.344 N 
HETATM   15  C   UNL     1       0.867  13.550  23.988  0.00  0.00     0.252 C 
HETATM   16  O   UNL     1       0.723  14.422  24.834  0.00  0.00    -0.268 OA
HETATM   17  H   UNL     1       2.092  12.120  23.108  0.00  0.00     0.163 HD
BRANCH  15  18
HETATM   18  C   UNL     1      -0.281  13.143  23.134  0.00  0.00     0.034 A 
HETATM   19  C   UNL     1      -1.474  12.650  23.664  0.00  0.00     0.036 A 
HETATM   20  C   UNL     1      -2.506  12.379  22.782  0.00  0.00     0.117 A 
HETATM   21  N   UNL     1      -2.422  12.562  21.447  0.00  0.00    -0.273 NA
HETATM   22  C   UNL     1      -1.245  13.012  20.961  0.00  0.00     0.117 A 
HETATM   23  C   UNL     1      -0.153  13.304  21.755  0.00  0.00     0.036 A 
ENDBRANCH  15  18
ENDBRANCH   1  14
BRANCH  13  24
HETATM   24  C   UNL     1       7.517  11.485  22.819  0.00  0.00     0.140 A 
HETATM   25  N   UNL     1       7.652  11.876  21.566  0.00  0.00    -0.227 NA
HETATM   26  C   UNL     1       9.000  12.005  21.335  0.00  0.00     0.103 A 
HETATM   27  C   UNL     1       9.692  12.446  20.206  0.00  0.00     0.150 A 
HETATM   28  C   UNL     1       9.725  11.615  22.454  0.00  0.00     0.065 A 
HETATM   29  N   UNL     1      11.053  12.456  20.199  0.00  0.00    -0.271 NA
HETATM   30  C   UNL     1      11.714  12.032  21.303  0.00  0.00     0.118 A 
HETATM   31  C   UNL     1      11.115  11.601  22.481  0.00  0.00     0.051 A 
HETATM   32  N   UNL     1       8.767  11.305  23.384  0.00  0.00    -0.338 N 
HETATM   33  H   UNL     1       8.939  11.011  24.333  0.00  0.00     0.167 HD
ENDBRANCH  13  24
TORSDOF 3
ENDMDL
MODEL 5
REMARK VINA RESULT:    -8.442      3.434      7.786
REMARK INTER + INTRA:         -10.987
REMARK INTER:                 -10.003
REMARK INTRA:                  -0.984
REMARK UNBOUND:                -1.065
REMARK  3 active torsions:
REMARK  status: ('A' for Active; 'I' for Inactive)
REMARK       I    between atoms: C_2  and  N_3 
REMARK    1  A    between atoms: C_2  and  C_27 
REMARK    2  A    between atoms: N_3  and  C_4 
REMARK    3  A    between atoms: C_16  and  C_17 
ROOT
HETATM    1  C   UNL     1       3.863  12.356  21.991  0.00  0.00     0.153 A 
HETATM    2  C   UNL     1       5.005  11.993  21.069  0.00  0.00    -0.020 A 
HETATM    3  C   UNL     1       4.966  11.095  20.009  0.00  0.00     0.010 A 
HETATM    4  C   UNL     1       6.117  10.924  19.246  0.00  0.00     0.001 A 
HETATM    5  C   UNL     1       7.276  11.649  19.549  0.00  0.00     0.001 A 
HETATM    6  C   UNL     1       7.297  12.563  20.611  0.00  0.00     0.013 A 
HETATM    7  C   UNL     1       6.164  12.741  21.388  0.00  0.00    -0.016 A 
HETATM    8  C   UNL     1       5.861  13.643  22.503  0.00  0.00    -0.003 A 
HETATM    9  C   UNL     1       4.478  13.482  22.809  0.00  0.00    -0.019 A 
HETATM   10  C   UNL     1       3.822  14.247  23.763  0.00  0.00     0.010 A 
HETATM   11  C   UNL     1       4.566  15.169  24.483  0.00  0.00     0.002 A 
HETATM   12  C   UNL     1       5.941  15.309  24.241  0.00  0.00     0.016 A 
HETATM   13  C   UNL     1       6.616  14.564  23.243  0.00  0.00     0.022 A 
ENDROOT
BRANCH   1  14
HETATM   14  N   UNL     1       3.517  11.260  22.870  0.00  0.00    -0.344 N 
HETATM   15  C   UNL     1       2.286  11.156  23.463  0.00  0.00     0.252 C 
HETATM   16  O   UNL     1       1.366  11.939  23.266  0.00  0.00    -0.268 OA
HETATM   17  H   UNL     1       4.248  10.595  23.071  0.00  0.00     0.163 HD
BRANCH  15  18
HETATM   18  C   UNL     1       2.137  10.067  24.464  0.00  0.00     0.034 A 
HETATM   19  C   UNL     1       0.897   9.530  24.811  0.00  0.00     0.036 A 
HETATM   20  C   UNL     1       0.882   8.462  25.693  0.00  0.00     0.117 A 
HETATM   21  N   UNL     1       1.993   7.919  26.234  0.00  0.00    -0.273 NA
HETATM   22  C   UNL     1       3.176   8.480  25.903  0.00  0.00     0.117 A 
HETATM   23  C   UNL     1       3.298   9.551  25.039  0.00  0.00     0.036 A 
ENDBRANCH  15  18
ENDBRANCH   1  14
BRANCH  13  24
HETATM   24  C   UNL     1       8.058  14.772  23.075  0.00  0.00     0.140 A 
HETATM   25  N   UNL     1       8.651  15.611  22.247  0.00  0.00    -0.227 NA
HETATM   26  C   UNL     1      10.003  15.473  22.447  0.00  0.00     0.103 A 
HETATM   27  C   UNL     1      11.081  16.159  21.884  0.00  0.00     0.150 A 
HETATM   28  C   UNL     1      10.259  14.470  23.373  0.00  0.00     0.065 A 
HETATM   29  N   UNL     1      12.356  15.819  22.216  0.00  0.00    -0.271 NA
HETATM   30  C   UNL     1      12.553  14.809  23.098  0.00  0.00     0.118 A 
HETATM   31  C   UNL     1      11.547  14.087  23.729  0.00  0.00     0.051 A 
HETATM   32  N   UNL     1       9.015  14.052  23.768  0.00  0.00    -0.338 N 
HETATM   33  H   UNL     1       8.822  13.348  24.462  0.00  0.00     0.167 HD
ENDBRANCH  13  24
TORSDOF 3
ENDMDL
MODEL 6
REMARK VINA RESULT:    -8.432      3.952      6.072
REMARK INTER + INTRA:         -10.975
REMARK INTER:                 -10.006
REMARK INTRA:                  -0.970
REMARK UNBOUND:                -1.065
REMARK  3 active torsions:
REMARK  status: ('A' for Active; 'I' for Inactive)
REMARK       I    between atoms: C_2  and  N_3 
REMARK    1  A    between atoms: C_2  and  C_27 
REMARK    2  A    between atoms: N_3  and  C_4 
REMARK    3  A    between atoms: C_16  and  C_17 
ROOT
HETATM    1  C   UNL     1       6.124  12.291  24.556  0.00  0.00     0.153 A 
HETATM    2  C   UNL     1       5.184  11.110  24.488  0.00  0.00    -0.020 A 
HETATM    3  C   UNL     1       5.498   9.780  24.743  0.00  0.00     0.010 A 
HETATM    4  C   UNL     1       4.478   8.835  24.668  0.00  0.00     0.001 A 
HETATM    5  C   UNL     1       3.175   9.231  24.346  0.00  0.00     0.001 A 
HETATM    6  C   UNL     1       2.868  10.577  24.107  0.00  0.00     0.013 A 
HETATM    7  C   UNL     1       3.871  11.532  24.169  0.00  0.00    -0.016 A 
HETATM    8  C   UNL     1       3.856  12.991  24.030  0.00  0.00    -0.003 A 
HETATM    9  C   UNL     1       5.167  13.455  24.342  0.00  0.00    -0.019 A 
HETATM   10  C   UNL     1       5.499  14.802  24.396  0.00  0.00     0.010 A 
HETATM   11  C   UNL     1       4.517  15.728  24.078  0.00  0.00     0.002 A 
HETATM   12  C   UNL     1       3.233  15.296  23.713  0.00  0.00     0.016 A 
HETATM   13  C   UNL     1       2.868  13.927  23.692  0.00  0.00     0.022 A 
ENDROOT
BRANCH   1  14
HETATM   14  N   UNL     1       7.094  12.265  23.483  0.00  0.00    -0.344 N 
HETATM   15  C   UNL     1       8.442  12.181  23.714  0.00  0.00     0.252 C 
HETATM   16  O   UNL     1       8.937  12.070  24.828  0.00  0.00    -0.268 OA
HETATM   17  H   UNL     1       6.732  12.365  22.546  0.00  0.00     0.163 HD
BRANCH  15  18
HETATM   18  C   UNL     1       9.316  12.329  22.520  0.00  0.00     0.034 A 
HETATM   19  C   UNL     1      10.685  12.062  22.554  0.00  0.00     0.036 A 
HETATM   20  C   UNL     1      11.388  12.153  21.365  0.00  0.00     0.117 A 
HETATM   21  N   UNL     1      10.826  12.486  20.183  0.00  0.00    -0.273 NA
HETATM   22  C   UNL     1       9.505  12.768  20.188  0.00  0.00     0.117 A 
HETATM   23  C   UNL     1       8.718  12.714  21.322  0.00  0.00     0.036 A 
ENDBRANCH  15  18
ENDBRANCH   1  14
BRANCH  13  24
HETATM   24  C   UNL     1       1.504  13.576  23.284  0.00  0.00     0.140 A 
HETATM   25  N   UNL     1       0.557  13.053  24.039  0.00  0.00    -0.227 NA
HETATM   26  C   UNL     1      -0.551  12.910  23.238  0.00  0.00     0.103 A 
HETATM   27  C   UNL     1      -1.840  12.468  23.539  0.00  0.00     0.150 A 
HETATM   28  C   UNL     1      -0.261  13.288  21.934  0.00  0.00     0.065 A 
HETATM   29  N   UNL     1      -2.779  12.378  22.557  0.00  0.00    -0.271 NA
HETATM   30  C   UNL     1      -2.435  12.726  21.294  0.00  0.00     0.118 A 
HETATM   31  C   UNL     1      -1.189  13.201  20.902  0.00  0.00     0.051 A 
HETATM   32  N   UNL     1       1.039  13.720  21.990  0.00  0.00    -0.338 N 
HETATM   33  H   UNL     1       1.568  14.099  21.220  0.00  0.00     0.167 HD
ENDBRANCH  13  24
TORSDOF 3
ENDMDL
MODEL 7
REMARK VINA RESULT:    -8.340      2.659      4.073
REMARK INTER + INTRA:         -10.867
REMARK INTER:                  -9.939
REMARK INTRA:                  -0.928
REMARK UNBOUND:                -1.065
REMARK  3 active torsions:
REMARK  status: ('A' for Active; 'I' for Inactive)
REMARK       I    between atoms: C_2  and  N_3 
REMARK    1  A    between atoms: C_2  and  C_27 
REMARK    2  A    between atoms: N_3  and  C_4 
REMARK    3  A    between atoms: C_16  and  C_17 
ROOT
HETATM    1  C   UNL     1       7.661  11.039  23.796  0.00  0.00     0.153 A 
HETATM    2  C   UNL     1       7.900   9.600  23.401  0.00  0.00    -0.020 A 
HETATM    3  C   UNL     1       8.762   8.700  24.017  0.00  0.00     0.010 A 
HETATM    4  C   UNL     1       8.814   7.398  23.530  0.00  0.00     0.001 A 
HETATM    5  C   UNL     1       8.010   7.018  22.449  0.00  0.00     0.001 A 
HETATM    6  C   UNL     1       7.133   7.931  21.847  0.00  0.00     0.013 A 
HETATM    7  C   UNL     1       7.073   9.235  22.312  0.00  0.00    -0.016 A 
HETATM    8  C   UNL     1       6.236  10.379  21.940  0.00  0.00    -0.003 A 
HETATM    9  C   UNL     1       6.517  11.423  22.869  0.00  0.00    -0.019 A 
HETATM   10  C   UNL     1       5.840  12.635  22.871  0.00  0.00     0.010 A 
HETATM   11  C   UNL     1       4.886  12.850  21.888  0.00  0.00     0.002 A 
HETATM   12  C   UNL     1       4.629  11.860  20.927  0.00  0.00     0.016 A 
HETATM   13  C   UNL     1       5.283  10.603  20.937  0.00  0.00     0.022 A 
ENDROOT
BRANCH   1  14
HETATM   14  N   UNL     1       8.810  11.870  23.509  0.00  0.00    -0.344 N 
HETATM   15  C   UNL     1       9.152  12.945  24.288  0.00  0.00     0.252 C 
HETATM   16  O   UNL     1       8.557  13.262  25.309  0.00  0.00    -0.268 OA
HETATM   17  H   UNL     1       9.325  11.653  22.669  0.00  0.00     0.163 HD
BRANCH  15  18
HETATM   18  C   UNL     1      10.258  13.795  23.773  0.00  0.00     0.034 A 
HETATM   19  C   UNL     1      11.601  13.435  23.894  0.00  0.00     0.036 A 
HETATM   20  C   UNL     1      12.543  14.261  23.305  0.00  0.00     0.117 A 
HETATM   21  N   UNL     1      12.237  15.388  22.627  0.00  0.00    -0.273 NA
HETATM   22  C   UNL     1      10.931  15.726  22.553  0.00  0.00     0.117 A 
HETATM   23  C   UNL     1       9.916  14.974  23.113  0.00  0.00     0.036 A 
ENDBRANCH  15  18
ENDBRANCH   1  14
BRANCH  13  24
HETATM   24  C   UNL     1       4.955   9.639  19.881  0.00  0.00     0.140 A 
HETATM   25  N   UNL     1       4.345   8.478  20.025  0.00  0.00    -0.227 NA
HETATM   26  C   UNL     1       4.240   7.930  18.769  0.00  0.00     0.103 A 
HETATM   27  C   UNL     1       3.631   6.750  18.339  0.00  0.00     0.150 A 
HETATM   28  C   UNL     1       4.865   8.740  17.830  0.00  0.00     0.065 A 
HETATM   29  N   UNL     1       3.685   6.390  17.028  0.00  0.00    -0.271 NA
HETATM   30  C   UNL     1       4.338   7.198  16.158  0.00  0.00     0.118 A 
HETATM   31  C   UNL     1       4.951   8.402  16.484  0.00  0.00     0.051 A 
HETATM   32  N   UNL     1       5.296   9.822  18.554  0.00  0.00    -0.338 N 
HETATM   33  H   UNL     1       5.768  10.631  18.181  0.00  0.00     0.167 HD
ENDBRANCH  13  24
TORSDOF 3
ENDMDL
MODEL 8
REMARK VINA RESULT:    -8.237      4.529      8.316
REMARK INTER + INTRA:         -10.746
REMARK INTER:                  -9.769
REMARK INTRA:                  -0.976
REMARK UNBOUND:                -1.065
REMARK  3 active torsions:
REMARK  status: ('A' for Active; 'I' for Inactive)
REMARK       I    between atoms: C_2  and  N_3 
REMARK    1  A    between atoms: C_2  and  C_27 
REMARK    2  A    between atoms: N_3  and  C_4 
REMARK    3  A    between atoms: C_16  and  C_17 
ROOT
HETATM    1  C   UNL     1       5.611   9.446  23.123  0.00  0.00     0.153 A 
HETATM    2  C   UNL     1       7.044   9.130  23.484  0.00  0.00    -0.020 A 
HETATM    3  C   UNL     1       7.579   7.874  23.747  0.00  0.00     0.010 A 
HETATM    4  C   UNL     1       8.940   7.781  24.022  0.00  0.00     0.001 A 
HETATM    5  C   UNL     1       9.737   8.931  24.027  0.00  0.00     0.001 A 
HETATM    6  C   UNL     1       9.189  10.190  23.744  0.00  0.00     0.013 A 
HETATM    7  C   UNL     1       7.834  10.304  23.476  0.00  0.00    -0.016 A 
HETATM    8  C   UNL     1       6.995  11.445  23.096  0.00  0.00    -0.003 A 
HETATM    9  C   UNL     1       5.698  10.931  22.802  0.00  0.00    -0.019 A 
HETATM   10  C   UNL     1       4.662  11.722  22.323  0.00  0.00     0.010 A 
HETATM   11  C   UNL     1       4.894  13.081  22.178  0.00  0.00     0.002 A 
HETATM   12  C   UNL     1       6.146  13.622  22.514  0.00  0.00     0.016 A 
HETATM   13  C   UNL     1       7.224  12.822  22.965  0.00  0.00     0.022 A 
ENDROOT
BRANCH   1  14
HETATM   14  N   UNL     1       4.721   9.250  24.247  0.00  0.00    -0.344 N 
HETATM   15  C   UNL     1       3.944   8.129  24.381  0.00  0.00     0.252 C 
HETATM   16  O   UNL     1       3.970   7.185  23.603  0.00  0.00    -0.268 OA
HETATM   17  H   UNL     1       4.658  10.009  24.909  0.00  0.00     0.163 HD
BRANCH  15  18
HETATM   18  C   UNL     1       2.965   8.148  25.499  0.00  0.00     0.034 A 
HETATM   19  C   UNL     1       1.595   8.321  25.295  0.00  0.00     0.036 A 
HETATM   20  C   UNL     1       0.764   8.239  26.400  0.00  0.00     0.117 A 
HETATM   21  N   UNL     1       1.204   8.005  27.655  0.00  0.00    -0.273 NA
HETATM   22  C   UNL     1       2.537   7.872  27.825  0.00  0.00     0.117 A 
HETATM   23  C   UNL     1       3.450   7.945  26.790  0.00  0.00     0.036 A 
ENDBRANCH  15  18
ENDBRANCH   1  14
BRANCH  13  24
HETATM   24  C   UNL     1       8.488  13.483  23.302  0.00  0.00     0.140 A 
HETATM   25  N   UNL     1       9.608  13.463  22.605  0.00  0.00    -0.227 NA
HETATM   26  C   UNL     1      10.516  14.229  23.296  0.00  0.00     0.103 A 
HETATM   27  C   UNL     1      11.826  14.593  22.981  0.00  0.00     0.150 A 
HETATM   28  C   UNL     1       9.967  14.678  24.490  0.00  0.00     0.065 A 
HETATM   29  N   UNL     1      12.556  15.344  23.850  0.00  0.00    -0.271 NA
HETATM   30  C   UNL     1      11.985  15.727  25.018  0.00  0.00     0.118 A 
HETATM   31  C   UNL     1      10.683  15.437  25.408  0.00  0.00     0.051 A 
HETATM   32  N   UNL     1       8.679  14.207  24.465  0.00  0.00    -0.338 N 
HETATM   33  H   UNL     1       7.977  14.374  25.168  0.00  0.00     0.167 HD
ENDBRANCH  13  24
TORSDOF 3
ENDMDL
MODEL 9
REMARK VINA RESULT:    -8.111      3.186      8.510
REMARK INTER + INTRA:         -10.598
REMARK INTER:                  -9.533
REMARK INTRA:                  -1.065
REMARK UNBOUND:                -1.065
REMARK  3 active torsions:
REMARK  status: ('A' for Active; 'I' for Inactive)
REMARK       I    between atoms: C_2  and  N_3 
REMARK    1  A    between atoms: C_2  and  C_27 
REMARK    2  A    between atoms: N_3  and  C_4 
REMARK    3  A    between atoms: C_16  and  C_17 
ROOT
HETATM    1  C   UNL     1       5.905   9.534  23.230  0.00  0.00     0.153 A 
HETATM    2  C   UNL     1       5.715  10.894  23.861  0.00  0.00    -0.020 A 
HETATM    3  C   UNL     1       4.507  11.528  24.125  0.00  0.00     0.010 A 
HETATM    4  C   UNL     1       4.538  12.770  24.753  0.00  0.00     0.001 A 
HETATM    5  C   UNL     1       5.762  13.350  25.107  0.00  0.00     0.001 A 
HETATM    6  C   UNL     1       6.972  12.692  24.849  0.00  0.00     0.013 A 
HETATM    7  C   UNL     1       6.963  11.459  24.217  0.00  0.00    -0.016 A 
HETATM    8  C   UNL     1       8.033  10.518  23.871  0.00  0.00    -0.003 A 
HETATM    9  C   UNL     1       7.408   9.341  23.365  0.00  0.00    -0.019 A 
HETATM   10  C   UNL     1       8.117   8.200  23.016  0.00  0.00     0.010 A 
HETATM   11  C   UNL     1       9.499   8.235  23.117  0.00  0.00     0.002 A 
HETATM   12  C   UNL     1      10.144   9.401  23.559  0.00  0.00     0.016 A 
HETATM   13  C   UNL     1       9.432  10.559  23.957  0.00  0.00     0.022 A 
ENDROOT
BRANCH   1  14
HETATM   14  N   UNL     1       5.547   9.540  21.828  0.00  0.00    -0.344 N 
HETATM   15  C   UNL     1       5.047   8.434  21.193  0.00  0.00     0.252 C 
HETATM   16  O   UNL     1       4.814   7.372  21.755  0.00  0.00    -0.268 OA
HETATM   17  H   UNL     1       5.733  10.392  21.320  0.00  0.00     0.163 HD
BRANCH  15  18
HETATM   18  C   UNL     1       4.883   8.549  19.720  0.00  0.00     0.034 A 
HETATM   19  C   UNL     1       4.522   7.467  18.916  0.00  0.00     0.036 A 
HETATM   20  C   UNL     1       4.316   7.706  17.568  0.00  0.00     0.117 A 
HETATM   21  N   UNL     1       4.446   8.920  16.992  0.00  0.00    -0.273 NA
HETATM   22  C   UNL     1       4.825   9.942  17.789  0.00  0.00     0.117 A 
HETATM   23  C   UNL     1       5.063   9.806  19.143  0.00  0.00     0.036 A 
ENDBRANCH  15  18
ENDBRANCH   1  14
BRANCH  13  24
HETATM   24  C   UNL     1      10.197  11.732  24.392  0.00  0.00     0.140 A 
HETATM   25  N   UNL     1      10.599  12.742  23.644  0.00  0.00    -0.227 NA
HETATM   26  C   UNL     1      11.264  13.610  24.478  0.00  0.00     0.103 A 
HETATM   27  C   UNL     1      11.835  14.858  24.225  0.00  0.00     0.150 A 
HETATM   28  C   UNL     1      11.337  13.089  25.763  0.00  0.00     0.065 A 
HETATM   29  N   UNL     1      12.481  15.529  25.217  0.00  0.00    -0.271 NA
HETATM   30  C   UNL     1      12.555  14.961  26.445  0.00  0.00     0.118 A 
HETATM   31  C   UNL     1      11.997  13.739  26.800  0.00  0.00     0.051 A 
HETATM   32  N   UNL     1      10.642  11.910  25.689  0.00  0.00    -0.338 N 
HETATM   33  H   UNL     1      10.467  11.279  26.455  0.00  0.00     0.167 HD
ENDBRANCH  13  24
TORSDOF 3
ENDMDL
