MODEL 1
REMARK VINA RESULT:    -8.004      0.000      0.000
REMARK INTER + INTRA:         -12.828
REMARK INTER:                 -11.280
REMARK INTRA:                  -1.547
REMARK UNBOUND:                -1.548
REMARK  8 active torsions:
REMARK  status: ('A' for Active; 'I' for Inactive)
REMARK    1  A    between atoms: O_1  and  C_2 
REMARK    2  A    between atoms: C_4  and  O_5 
REMARK    3  A    between atoms: C_6  and  C_10 
REMARK    4  A    between atoms: C_13  and  C_14 
REMARK       I    between atoms: C_14  and  N_16 
REMARK    5  A    between atoms: N_16  and  C_17 
REMARK    6  A    between atoms: C_19  and  C_20 
REMARK    7  A    between atoms: C_23  and  C_26 
REMARK    8  A    between atoms: C_26  and  N_27 
ROOT
HETATM    1  C   UNL     1       6.543  14.549  22.812  0.00  0.00     0.128 A 
HETATM    2  O   UNL     1       7.110  15.697  22.330  0.00  0.00    -0.211 OA
HETATM    3  N   UNL     1       7.948  15.415  21.261  0.00  0.00    -0.121 NA
HETATM    4  C   UNL     1       7.938  14.078  21.130  0.00  0.00     0.165 A 
HETATM    5  C   UNL     1       7.064  13.481  22.095  0.00  0.00     0.048 A 
ENDROOT
BRANCH   5   6
HETATM    6  C   UNL     1       6.609  12.104  22.171  0.00  0.00    -0.021 A 
HETATM    7  C   UNL     1       7.335  11.111  22.837  0.00  0.00     0.013 A 
HETATM    8  C   UNL     1       6.850   9.797  22.889  0.00  0.00     0.010 A 
HETATM    9  C   UNL     1       5.644   9.460  22.255  0.00  0.00    -0.033 A 
HETATM   10  C   UNL     1       4.915  10.461  21.603  0.00  0.00     0.010 A 
HETATM   11  C   UNL     1       5.390  11.768  21.571  0.00  0.00     0.013 A 
BRANCH   9  12
HETATM   12  C   UNL     1       5.145   8.044  22.201  0.00  0.00     0.273 C 
BRANCH  12  13
HETATM   13  N   UNL     1       4.217   7.733  21.050  0.00  0.00    -0.063 N 
HETATM   14  H   UNL     1       3.751   8.609  20.784  0.00  0.00     0.280 HD
HETATM   15  C   UNL     1       4.958   7.217  19.820  0.00  0.00     0.261 C 
HETATM   16  C   UNL     1       3.949   6.791  18.751  0.00  0.00     0.195 C 
HETATM   17  O   UNL     1       3.084   5.772  19.263  0.00  0.00    -0.388 OA
HETATM   18  C   UNL     1       2.285   6.265  20.341  0.00  0.00     0.195 C 
HETATM   19  C   UNL     1       3.151   6.743  21.510  0.00  0.00     0.261 C 
ENDBRANCH  12  13
ENDBRANCH   9  12
ENDBRANCH   5   6
BRANCH   1  20
HETATM   20  C   UNL     1       5.468  14.731  23.807  0.00  0.00     0.035 A 
HETATM   21  C   UNL     1       5.702  15.104  25.142  0.00  0.00     0.081 A 
HETATM   22  C   UNL     1       4.636  15.316  26.026  0.00  0.00     0.074 A 
HETATM   23  C   UNL     1       3.325  15.147  25.585  0.00  0.00     0.074 A 
HETATM   24  C   UNL     1       3.056  14.757  24.275  0.00  0.00    -0.028 A 
HETATM   25  C   UNL     1       4.135  14.561  23.402  0.00  0.00     0.026 A 
HETATM   26  C   UNL     1       1.648  14.625  23.773  0.00  0.00     0.051 C 
BRANCH  21  27
HETATM   27  O   UNL     1       6.982  15.259  25.595  0.00  0.00    -0.360 OA
HETATM   28  H   UNL     1       7.576  15.450  24.850  0.00  0.00     0.217 HD
ENDBRANCH  21  27
BRANCH  23  29
HETATM   29  O   UNL     1       2.269  15.367  26.423  0.00  0.00    -0.360 OA
HETATM   30  H   UNL     1       1.759  16.134  26.109  0.00  0.00     0.217 HD
ENDBRANCH  23  29
ENDBRANCH   1  20
BRANCH   4  31
HETATM   31  C   UNL     1       8.681  13.384  20.066  0.00  0.00     0.273 C 
HETATM   32  O   UNL     1       8.345  13.438  18.886  0.00  0.00    -0.266 OA
HETATM   33  N   UNL     1       9.843  12.754  20.470  0.00  0.00    -0.356 N 
HETATM   34  H   UNL     1      10.064  12.763  21.460  0.00  0.00     0.162 HD
BRANCH  33  35
HETATM   35  C   UNL     1      10.761  12.137  19.532  0.00  0.00     0.118 C 
HETATM   36  C   UNL     1      12.147  11.918  20.122  0.00  0.00     0.026 C 
ENDBRANCH  33  35
ENDBRANCH   4  31
TORSDOF 8
ENDMDL
MODEL 2
REMARK VINA RESULT:    -7.946      0.846      1.084
REMARK INTER + INTRA:         -12.745
REMARK INTER:                 -11.352
REMARK INTRA:                  -1.393
REMARK UNBOUND:                -1.548
REMARK  8 active torsions:
REMARK  status: ('A' for Active; 'I' for Inactive)
REMARK    1  A    between atoms: O_1  and  C_2 
REMARK    2  A    between atoms: C_4  and  O_5 
REMARK    3  A    between atoms: C_6  and  C_10 
REMARK    4  A    between atoms: C_13  and  C_14 
REMARK       I    between atoms: C_14  and  N_16 
REMARK    5  A    between atoms: N_16  and  C_17 
REMARK    6  A    between atoms: C_19  and  C_20 
REMARK    7  A    between atoms: C_23  and  C_26 
REMARK    8  A    between atoms: C_26  and  N_27 
ROOT
HETATM    1  C   UNL     1       6.504  14.602  22.883  0.00  0.00     0.128 A 
HETATM    2  O   UNL     1       7.061  15.756  22.405  0.00  0.00    -0.211 OA
HETATM    3  N   UNL     1       7.895  15.486  21.330  0.00  0.00    -0.121 NA
HETATM    4  C   UNL     1       7.892  14.150  21.190  0.00  0.00     0.165 A 
HETATM    5  C   UNL     1       7.027  13.542  22.157  0.00  0.00     0.048 A 
ENDROOT
BRANCH   5   6
HETATM    6  C   UNL     1       6.581  12.161  22.227  0.00  0.00    -0.021 A 
HETATM    7  C   UNL     1       7.347  11.156  22.826  0.00  0.00     0.013 A 
HETATM    8  C   UNL     1       6.869   9.839  22.875  0.00  0.00     0.010 A 
HETATM    9  C   UNL     1       5.628   9.513  22.305  0.00  0.00    -0.033 A 
HETATM   10  C   UNL     1       4.860  10.525  21.721  0.00  0.00     0.010 A 
HETATM   11  C   UNL     1       5.329  11.835  21.692  0.00  0.00     0.013 A 
BRANCH   9  12
HETATM   12  C   UNL     1       5.130   8.096  22.248  0.00  0.00     0.273 C 
BRANCH  12  13
HETATM   13  N   UNL     1       5.617   7.292  21.065  0.00  0.00    -0.063 N 
HETATM   14  H   UNL     1       6.591   7.565  20.887  0.00  0.00     0.280 HD
HETATM   15  C   UNL     1       5.604   5.789  21.330  0.00  0.00     0.261 C 
HETATM   16  C   UNL     1       5.971   5.036  20.049  0.00  0.00     0.195 C 
HETATM   17  O   UNL     1       5.047   5.356  19.004  0.00  0.00    -0.388 OA
HETATM   18  C   UNL     1       5.126   6.738  18.648  0.00  0.00     0.195 C 
HETATM   19  C   UNL     1       4.787   7.645  19.834  0.00  0.00     0.261 C 
ENDBRANCH  12  13
ENDBRANCH   9  12
ENDBRANCH   5   6
BRANCH   1  20
HETATM   20  C   UNL     1       5.433  14.772  23.885  0.00  0.00     0.035 A 
HETATM   21  C   UNL     1       5.675  15.093  25.232  0.00  0.00     0.081 A 
HETATM   22  C   UNL     1       4.615  15.297  26.125  0.00  0.00     0.074 A 
HETATM   23  C   UNL     1       3.300  15.171  25.679  0.00  0.00     0.074 A 
HETATM   24  C   UNL     1       3.022  14.831  24.357  0.00  0.00    -0.028 A 
HETATM   25  C   UNL     1       4.097  14.644  23.476  0.00  0.00     0.026 A 
HETATM   26  C   UNL     1       1.612  14.747  23.853  0.00  0.00     0.051 C 
BRANCH  21  27
HETATM   27  O   UNL     1       6.958  15.206  25.688  0.00  0.00    -0.360 OA
HETATM   28  H   UNL     1       7.510  15.647  25.021  0.00  0.00     0.217 HD
ENDBRANCH  21  27
BRANCH  23  29
HETATM   29  O   UNL     1       2.250  15.383  26.526  0.00  0.00    -0.360 OA
HETATM   30  H   UNL     1       1.821  16.228  26.306  0.00  0.00     0.217 HD
ENDBRANCH  23  29
ENDBRANCH   1  20
BRANCH   4  31
HETATM   31  C   UNL     1       8.633  13.466  20.119  0.00  0.00     0.273 C 
HETATM   32  O   UNL     1       8.348  13.602  18.931  0.00  0.00    -0.266 OA
HETATM   33  N   UNL     1       9.738  12.745  20.530  0.00  0.00    -0.356 N 
HETATM   34  H   UNL     1       9.920  12.689  21.526  0.00  0.00     0.162 HD
BRANCH  33  35
HETATM   35  C   UNL     1      10.653  12.121  19.593  0.00  0.00     0.118 C 
HETATM   36  C   UNL     1      12.081  12.061  20.117  0.00  0.00     0.026 C 
ENDBRANCH  33  35
ENDBRANCH   4  31
TORSDOF 8
ENDMDL
MODEL 3
REMARK VINA RESULT:    -7.630      2.347      5.521
REMARK INTER + INTRA:         -12.299
REMARK INTER:                 -10.647
REMARK INTRA:                  -1.652
REMARK UNBOUND:                -1.548
REMARK  8 active torsions:
REMARK  status: ('A' for Active; 'I' for Inactive)
REMARK    1  A    between atoms: O_1  and  C_2 
REMARK    2  A    between atoms: C_4  and  O_5 
REMARK    3  A    between atoms: C_6  and  C_10 
REMARK    4  A    between atoms: C_13  and  C_14 
REMARK       I    between atoms: C_14  and  N_16 
REMARK    5  A    between atoms: N_16  and  C_17 
REMARK    6  A    between atoms: C_19  and  C_20 
REMARK    7  A    between atoms: C_23  and  C_26 
REMARK    8  A    between atoms: C_26  and  N_27 
ROOT
HETATM    1  C   UNL     1       5.427  14.939  23.487  0.00  0.00     0.128 A 
HETATM    2  O   UNL     1       5.021  16.144  23.993  0.00  0.00    -0.211 OA
HETATM    3  N   UNL     1       3.747  16.042  24.532  0.00  0.00    -0.121 NA
HETATM    4  C   UNL     1       3.350  14.780  24.299  0.00  0.00     0.165 A 
HETATM    5  C   UNL     1       4.380  14.040  23.633  0.00  0.00     0.048 A 
ENDROOT
BRANCH   5   6
HETATM    6  C   UNL     1       4.446  12.611  23.381  0.00  0.00    -0.021 A 
HETATM    7  C   UNL     1       4.497  11.670  24.415  0.00  0.00     0.013 A 
HETATM    8  C   UNL     1       4.551  10.301  24.120  0.00  0.00     0.010 A 
HETATM    9  C   UNL     1       4.577   9.862  22.787  0.00  0.00    -0.033 A 
HETATM   10  C   UNL     1       4.511  10.807  21.758  0.00  0.00     0.010 A 
HETATM   11  C   UNL     1       4.437  12.165  22.055  0.00  0.00     0.013 A 
BRANCH   9  12
HETATM   12  C   UNL     1       4.739   8.411  22.433  0.00  0.00     0.273 C 
BRANCH  12  13
HETATM   13  N   UNL     1       3.944   7.950  21.234  0.00  0.00    -0.063 N 
HETATM   14  H   UNL     1       3.400   8.753  20.896  0.00  0.00     0.280 HD
HETATM   15  C   UNL     1       4.832   7.483  20.083  0.00  0.00     0.261 C 
HETATM   16  C   UNL     1       3.964   6.901  18.965  0.00  0.00     0.195 C 
HETATM   17  O   UNL     1       3.188   5.805  19.459  0.00  0.00    -0.388 OA
HETATM   18  C   UNL     1       2.257   6.236  20.454  0.00  0.00     0.195 C 
HETATM   19  C   UNL     1       2.969   6.856  21.660  0.00  0.00     0.261 C 
ENDBRANCH  12  13
ENDBRANCH   9  12
ENDBRANCH   5   6
BRANCH   1  20
HETATM   20  C   UNL     1       6.843  14.856  23.079  0.00  0.00     0.035 A 
HETATM   21  C   UNL     1       7.916  14.909  23.986  0.00  0.00     0.081 A 
HETATM   22  C   UNL     1       9.238  14.769  23.545  0.00  0.00     0.074 A 
HETATM   23  C   UNL     1       9.500  14.583  22.189  0.00  0.00     0.074 A 
HETATM   24  C   UNL     1       8.464  14.548  21.258  0.00  0.00    -0.028 A 
HETATM   25  C   UNL     1       7.147  14.678  21.721  0.00  0.00     0.026 A 
HETATM   26  C   UNL     1       8.729  14.295  19.804  0.00  0.00     0.051 C 
BRANCH  21  27
HETATM   27  O   UNL     1       7.677  15.105  25.317  0.00  0.00    -0.360 OA
HETATM   28  H   UNL     1       7.747  16.051  25.530  0.00  0.00     0.217 HD
ENDBRANCH  21  27
BRANCH  23  29
HETATM   29  O   UNL     1      10.779  14.425  21.737  0.00  0.00    -0.360 OA
HETATM   30  H   UNL     1      11.040  15.205  21.218  0.00  0.00     0.217 HD
ENDBRANCH  23  29
ENDBRANCH   1  20
BRANCH   4  31
HETATM   31  C   UNL     1       2.053  14.263  24.762  0.00  0.00     0.273 C 
HETATM   32  O   UNL     1       1.786  14.128  25.954  0.00  0.00    -0.266 OA
HETATM   33  N   UNL     1       1.117  14.039  23.770  0.00  0.00    -0.356 N 
HETATM   34  H   UNL     1       1.404  14.186  22.809  0.00  0.00     0.162 HD
BRANCH  33  35
HETATM   35  C   UNL     1      -0.252  13.657  24.063  0.00  0.00     0.118 C 
HETATM   36  C   UNL     1      -0.753  12.532  23.168  0.00  0.00     0.026 C 
ENDBRANCH  33  35
ENDBRANCH   4  31
TORSDOF 8
ENDMDL
MODEL 4
REMARK VINA RESULT:    -7.628      3.325      5.223
REMARK INTER + INTRA:         -12.297
REMARK INTER:                 -10.672
REMARK INTRA:                  -1.625
REMARK UNBOUND:                -1.548
REMARK  8 active torsions:
REMARK  status: ('A' for Active; 'I' for Inactive)
REMARK    1  A    between atoms: O_1  and  C_2 
REMARK    2  A    between atoms: C_4  and  O_5 
REMARK    3  A    between atoms: C_6  and  C_10 
REMARK    4  A    between atoms: C_13  and  C_14 
REMARK       I    between atoms: C_14  and  N_16 
REMARK    5  A    between atoms: N_16  and  C_17 
REMARK    6  A    between atoms: C_19  and  C_20 
REMARK    7  A    between atoms: C_23  and  C_26 
REMARK    8  A    between atoms: C_26  and  N_27 
ROOT
HETATM    1  C   UNL     1       1.576  13.551  25.116  0.00  0.00     0.128 A 
HETATM    2  O   UNL     1       1.483  14.678  25.886  0.00  0.00    -0.211 OA
HETATM    3  N   UNL     1       2.746  15.150  26.214  0.00  0.00    -0.121 NA
HETATM    4  C   UNL     1       3.614  14.269  25.690  0.00  0.00     0.165 A 
HETATM    5  C   UNL     1       2.920  13.232  24.986  0.00  0.00     0.048 A 
ENDROOT
BRANCH   5   6
HETATM    6  C   UNL     1       3.471  12.209  24.114  0.00  0.00    -0.021 A 
HETATM    7  C   UNL     1       3.552  10.865  24.494  0.00  0.00     0.013 A 
HETATM    8  C   UNL     1       4.085   9.914  23.613  0.00  0.00     0.010 A 
HETATM    9  C   UNL     1       4.562  10.304  22.351  0.00  0.00    -0.033 A 
HETATM   10  C   UNL     1       4.464  11.647  21.972  0.00  0.00     0.010 A 
HETATM   11  C   UNL     1       3.916  12.584  22.841  0.00  0.00     0.013 A 
BRANCH   9  12
HETATM   12  C   UNL     1       5.233   9.332  21.422  0.00  0.00     0.273 C 
BRANCH  12  13
HETATM   13  N   UNL     1       4.318   8.661  20.425  0.00  0.00    -0.063 N 
HETATM   14  H   UNL     1       3.486   9.253  20.323  0.00  0.00     0.280 HD
HETATM   15  C   UNL     1       4.953   8.521  19.045  0.00  0.00     0.261 C 
HETATM   16  C   UNL     1       4.031   7.710  18.131  0.00  0.00     0.195 C 
HETATM   17  O   UNL     1       3.791   6.415  18.692  0.00  0.00    -0.388 OA
HETATM   18  C   UNL     1       3.085   6.510  19.931  0.00  0.00     0.195 C 
HETATM   19  C   UNL     1       3.878   7.305  20.972  0.00  0.00     0.261 C 
ENDBRANCH  12  13
ENDBRANCH   9  12
ENDBRANCH   5   6
BRANCH   1  20
HETATM   20  C   UNL     1       0.314  13.073  24.520  0.00  0.00     0.035 A 
HETATM   21  C   UNL     1      -0.755  12.559  25.276  0.00  0.00     0.081 A 
HETATM   22  C   UNL     1      -1.952  12.172  24.659  0.00  0.00     0.074 A 
HETATM   23  C   UNL     1      -2.087  12.287  23.276  0.00  0.00     0.074 A 
HETATM   24  C   UNL     1      -1.041  12.770  22.492  0.00  0.00    -0.028 A 
HETATM   25  C   UNL     1       0.143  13.164  23.130  0.00  0.00     0.026 A 
HETATM   26  C   UNL     1      -1.194  12.950  21.011  0.00  0.00     0.051 C 
BRANCH  21  27
HETATM   27  O   UNL     1      -0.633  12.426  26.630  0.00  0.00    -0.360 OA
HETATM   28  H   UNL     1      -0.548  11.487  26.864  0.00  0.00     0.217 HD
ENDBRANCH  21  27
BRANCH  23  29
HETATM   29  O   UNL     1      -3.250  11.934  22.654  0.00  0.00    -0.360 OA
HETATM   30  H   UNL     1      -3.617  12.706  22.188  0.00  0.00     0.217 HD
ENDBRANCH  23  29
ENDBRANCH   1  20
BRANCH   4  31
HETATM   31  C   UNL     1       5.072  14.444  25.789  0.00  0.00     0.273 C 
HETATM   32  O   UNL     1       5.622  15.520  25.565  0.00  0.00    -0.266 OA
HETATM   33  N   UNL     1       5.770  13.345  26.253  0.00  0.00    -0.356 N 
HETATM   34  H   UNL     1       5.246  12.495  26.430  0.00  0.00     0.162 HD
BRANCH  33  35
HETATM   35  C   UNL     1       7.192  13.388  26.534  0.00  0.00     0.118 C 
HETATM   36  C   UNL     1       8.033  12.796  25.412  0.00  0.00     0.026 C 
ENDBRANCH  33  35
ENDBRANCH   4  31
TORSDOF 8
ENDMDL
MODEL 5
REMARK VINA RESULT:    -7.546      2.651      6.454
REMARK INTER + INTRA:         -12.182
REMARK INTER:                 -10.634
REMARK INTRA:                  -1.548
REMARK UNBOUND:                -1.548
REMARK  8 active torsions:
REMARK  status: ('A' for Active; 'I' for Inactive)
REMARK    1  A    between atoms: O_1  and  C_2 
REMARK    2  A    between atoms: C_4  and  O_5 
REMARK    3  A    between atoms: C_6  and  C_10 
REMARK    4  A    between atoms: C_13  and  C_14 
REMARK       I    between atoms: C_14  and  N_16 
REMARK    5  A    between atoms: N_16  and  C_17 
REMARK    6  A    between atoms: C_19  and  C_20 
REMARK    7  A    between atoms: C_23  and  C_26 
REMARK    8  A    between atoms: C_26  and  N_27 
ROOT
HETATM    1  C   UNL     1       7.833  11.020  21.943  0.00  0.00     0.128 A 
HETATM    2  O   UNL     1       9.003  10.378  21.645  0.00  0.00    -0.211 OA
HETATM    3  N   UNL     1      10.090  11.109  22.099  0.00  0.00    -0.121 NA
HETATM    4  C   UNL     1       9.580  12.235  22.626  0.00  0.00     0.165 A 
HETATM    5  C   UNL     1       8.150  12.228  22.546  0.00  0.00     0.048 A 
ENDROOT
BRANCH   5   6
HETATM    6  C   UNL     1       7.207  13.140  23.170  0.00  0.00    -0.021 A 
HETATM    7  C   UNL     1       6.735  12.954  24.473  0.00  0.00     0.013 A 
HETATM    8  C   UNL     1       5.831  13.867  25.033  0.00  0.00     0.010 A 
HETATM    9  C   UNL     1       5.374  14.964  24.285  0.00  0.00    -0.033 A 
HETATM   10  C   UNL     1       5.862  15.153  22.988  0.00  0.00     0.010 A 
HETATM   11  C   UNL     1       6.774  14.255  22.442  0.00  0.00     0.013 A 
BRANCH   9  12
HETATM   12  C   UNL     1       4.329  15.905  24.814  0.00  0.00     0.273 C 
BRANCH  12  13
HETATM   13  N   UNL     1       2.916  15.371  24.795  0.00  0.00    -0.063 N 
HETATM   14  H   UNL     1       2.288  16.166  24.633  0.00  0.00     0.280 HD
HETATM   15  C   UNL     1       2.682  14.366  23.671  0.00  0.00     0.261 C 
HETATM   16  C   UNL     1       1.280  13.764  23.800  0.00  0.00     0.195 C 
HETATM   17  O   UNL     1       1.132  13.121  25.070  0.00  0.00    -0.388 OA
HETATM   18  C   UNL     1       1.224  14.061  26.142  0.00  0.00     0.195 C 
HETATM   19  C   UNL     1       2.583  14.766  26.156  0.00  0.00     0.261 C 
ENDBRANCH  12  13
ENDBRANCH   9  12
ENDBRANCH   5   6
BRANCH   1  20
HETATM   20  C   UNL     1       6.597  10.248  21.707  0.00  0.00     0.035 A 
HETATM   21  C   UNL     1       6.062  10.011  20.428  0.00  0.00     0.081 A 
HETATM   22  C   UNL     1       4.916   9.223  20.263  0.00  0.00     0.074 A 
HETATM   23  C   UNL     1       4.288   8.671  21.378  0.00  0.00     0.074 A 
HETATM   24  C   UNL     1       4.776   8.902  22.662  0.00  0.00    -0.028 A 
HETATM   25  C   UNL     1       5.931   9.683  22.806  0.00  0.00     0.026 A 
HETATM   26  C   UNL     1       4.141   8.269  23.864  0.00  0.00     0.051 C 
BRANCH  21  27
HETATM   27  O   UNL     1       6.658  10.557  19.327  0.00  0.00    -0.360 OA
HETATM   28  H   UNL     1       6.023  10.596  18.592  0.00  0.00     0.217 HD
ENDBRANCH  21  27
BRANCH  23  29
HETATM   29  O   UNL     1       3.181   7.883  21.240  0.00  0.00    -0.360 OA
HETATM   30  H   UNL     1       2.382   8.414  21.401  0.00  0.00     0.217 HD
ENDBRANCH  23  29
ENDBRANCH   1  20
BRANCH   4  31
HETATM   31  C   UNL     1      10.422  13.263  23.258  0.00  0.00     0.273 C 
HETATM   32  O   UNL     1      11.074  13.044  24.277  0.00  0.00    -0.266 OA
HETATM   33  N   UNL     1      10.515  14.458  22.570  0.00  0.00    -0.356 N 
HETATM   34  H   UNL     1       9.959  14.561  21.728  0.00  0.00     0.162 HD
BRANCH  33  35
HETATM   35  C   UNL     1      11.404  15.527  22.983  0.00  0.00     0.118 C 
HETATM   36  C   UNL     1      10.656  16.768  23.448  0.00  0.00     0.026 C 
ENDBRANCH  33  35
ENDBRANCH   4  31
TORSDOF 8
ENDMDL
MODEL 6
REMARK VINA RESULT:    -7.521      2.260      3.336
REMARK INTER + INTRA:         -12.146
REMARK INTER:                 -10.487
REMARK INTRA:                  -1.660
REMARK UNBOUND:                -1.548
REMARK  8 active torsions:
REMARK  status: ('A' for Active; 'I' for Inactive)
REMARK    1  A    between atoms: O_1  and  C_2 
REMARK    2  A    between atoms: C_4  and  O_5 
REMARK    3  A    between atoms: C_6  and  C_10 
REMARK    4  A    between atoms: C_13  and  C_14 
REMARK       I    between atoms: C_14  and  N_16 
REMARK    5  A    between atoms: N_16  and  C_17 
REMARK    6  A    between atoms: C_19  and  C_20 
REMARK    7  A    between atoms: C_23  and  C_26 
REMARK    8  A    between atoms: C_26  and  N_27 
ROOT
HETATM    1  C   UNL     1       3.445  14.523  24.024  0.00  0.00     0.128 A 
HETATM    2  O   UNL     1       3.624  15.877  24.091  0.00  0.00    -0.211 OA
HETATM    3  N   UNL     1       4.912  16.219  23.706  0.00  0.00    -0.121 NA
HETATM    4  C   UNL     1       5.541  15.057  23.459  0.00  0.00     0.165 A 
HETATM    5  C   UNL     1       4.652  13.950  23.651  0.00  0.00     0.048 A 
ENDROOT
BRANCH   5   6
HETATM    6  C   UNL     1       4.860  12.556  23.302  0.00  0.00    -0.021 A 
HETATM    7  C   UNL     1       5.359  11.621  24.215  0.00  0.00     0.013 A 
HETATM    8  C   UNL     1       5.535  10.284  23.832  0.00  0.00     0.010 A 
HETATM    9  C   UNL     1       5.232   9.875  22.523  0.00  0.00    -0.033 A 
HETATM   10  C   UNL     1       4.720  10.812  21.619  0.00  0.00     0.010 A 
HETATM   11  C   UNL     1       4.528  12.134  22.009  0.00  0.00     0.013 A 
BRANCH   9  12
HETATM   12  C   UNL     1       5.504   8.477  22.047  0.00  0.00     0.273 C 
BRANCH  12  13
HETATM   13  N   UNL     1       4.422   7.871  21.184  0.00  0.00    -0.063 N 
HETATM   14  H   UNL     1       3.976   8.636  20.666  0.00  0.00     0.280 HD
HETATM   15  C   UNL     1       4.972   6.883  20.159  0.00  0.00     0.261 C 
HETATM   16  C   UNL     1       3.813   6.206  19.421  0.00  0.00     0.195 C 
HETATM   17  O   UNL     1       2.965   5.525  20.351  0.00  0.00    -0.388 OA
HETATM   18  C   UNL     1       2.337   6.442  21.249  0.00  0.00     0.195 C 
HETATM   19  C   UNL     1       3.369   7.217  22.074  0.00  0.00     0.261 C 
ENDBRANCH  12  13
ENDBRANCH   9  12
ENDBRANCH   5   6
BRANCH   1  20
HETATM   20  C   UNL     1       2.059  14.048  24.199  0.00  0.00     0.035 A 
HETATM   21  C   UNL     1       1.396  14.029  25.440  0.00  0.00     0.081 A 
HETATM   22  C   UNL     1       0.060  13.619  25.535  0.00  0.00     0.074 A 
HETATM   23  C   UNL     1      -0.624  13.214  24.390  0.00  0.00     0.074 A 
HETATM   24  C   UNL     1       0.007  13.198  23.148  0.00  0.00    -0.028 A 
HETATM   25  C   UNL     1       1.340  13.624  23.071  0.00  0.00     0.026 A 
HETATM   26  C   UNL     1      -0.735  12.817  21.901  0.00  0.00     0.051 C 
BRANCH  21  27
HETATM   27  O   UNL     1       2.058  14.408  26.574  0.00  0.00    -0.360 OA
HETATM   28  H   UNL     1       2.439  13.629  27.011  0.00  0.00     0.217 HD
ENDBRANCH  21  27
BRANCH  23  29
HETATM   29  O   UNL     1      -1.932  12.829  24.455  0.00  0.00    -0.360 OA
HETATM   30  H   UNL     1      -2.023  12.088  25.078  0.00  0.00     0.217 HD
ENDBRANCH  23  29
ENDBRANCH   1  20
BRANCH   4  31
HETATM   31  C   UNL     1       6.931  14.999  22.980  0.00  0.00     0.273 C 
HETATM   32  O   UNL     1       7.254  15.368  21.853  0.00  0.00    -0.266 OA
HETATM   33  N   UNL     1       7.864  14.601  23.917  0.00  0.00    -0.356 N 
HETATM   34  H   UNL     1       7.525  14.324  24.832  0.00  0.00     0.162 HD
BRANCH  33  35
HETATM   35  C   UNL     1       9.290  14.614  23.651  0.00  0.00     0.118 C 
HETATM   36  C   UNL     1       9.979  15.857  24.198  0.00  0.00     0.026 C 
ENDBRANCH  33  35
ENDBRANCH   4  31
TORSDOF 8
ENDMDL
MODEL 7
REMARK VINA RESULT:    -7.516      1.772      2.183
REMARK INTER + INTRA:         -12.139
REMARK INTER:                 -10.591
REMARK INTRA:                  -1.548
REMARK UNBOUND:                -1.548
REMARK  8 active torsions:
REMARK  status: ('A' for Active; 'I' for Inactive)
REMARK    1  A    between atoms: O_1  and  C_2 
REMARK    2  A    between atoms: C_4  and  O_5 
REMARK    3  A    between atoms: C_6  and  C_10 
REMARK    4  A    between atoms: C_13  and  C_14 
REMARK       I    between atoms: C_14  and  N_16 
REMARK    5  A    between atoms: N_16  and  C_17 
REMARK    6  A    between atoms: C_19  and  C_20 
REMARK    7  A    between atoms: C_23  and  C_26 
REMARK    8  A    between atoms: C_26  and  N_27 
ROOT
HETATM    1  C   UNL     1       6.694  14.579  22.729  0.00  0.00     0.128 A 
HETATM    2  O   UNL     1       7.154  15.718  22.129  0.00  0.00    -0.211 OA
HETATM    3  N   UNL     1       7.975  15.407  21.056  0.00  0.00    -0.121 NA
HETATM    4  C   UNL     1       8.064  14.067  21.039  0.00  0.00     0.165 A 
HETATM    5  C   UNL     1       7.271  13.494  22.086  0.00  0.00     0.048 A 
ENDROOT
BRANCH   5   6
HETATM    6  C   UNL     1       6.927  12.099  22.296  0.00  0.00    -0.021 A 
HETATM    7  C   UNL     1       7.730  11.234  23.048  0.00  0.00     0.013 A 
HETATM    8  C   UNL     1       7.350   9.897  23.228  0.00  0.00     0.010 A 
HETATM    9  C   UNL     1       6.174   9.407  22.639  0.00  0.00    -0.033 A 
HETATM   10  C   UNL     1       5.368  10.280  21.901  0.00  0.00     0.010 A 
HETATM   11  C   UNL     1       5.738  11.612  21.741  0.00  0.00     0.013 A 
BRANCH   9  12
HETATM   12  C   UNL     1       5.789   7.958  22.725  0.00  0.00     0.273 C 
BRANCH  12  13
HETATM   13  N   UNL     1       4.557   7.668  23.550  0.00  0.00    -0.063 N 
HETATM   14  H   UNL     1       3.793   8.242  23.176  0.00  0.00     0.280 HD
HETATM   15  C   UNL     1       4.119   6.209  23.462  0.00  0.00     0.261 C 
HETATM   16  C   UNL     1       2.960   5.958  24.429  0.00  0.00     0.195 C 
HETATM   17  O   UNL     1       3.355   6.269  25.769  0.00  0.00    -0.388 OA
HETATM   18  C   UNL     1       3.654   7.660  25.911  0.00  0.00     0.195 C 
HETATM   19  C   UNL     1       4.806   8.084  24.997  0.00  0.00     0.261 C 
ENDBRANCH  12  13
ENDBRANCH   9  12
ENDBRANCH   5   6
BRANCH   1  20
HETATM   20  C   UNL     1       5.642  14.767  23.747  0.00  0.00     0.035 A 
HETATM   21  C   UNL     1       5.909  15.112  25.084  0.00  0.00     0.081 A 
HETATM   22  C   UNL     1       4.865  15.332  25.992  0.00  0.00     0.074 A 
HETATM   23  C   UNL     1       3.542  15.200  25.573  0.00  0.00     0.074 A 
HETATM   24  C   UNL     1       3.240  14.838  24.262  0.00  0.00    -0.028 A 
HETATM   25  C   UNL     1       4.298  14.634  23.365  0.00  0.00     0.026 A 
HETATM   26  C   UNL     1       1.821  14.745  23.785  0.00  0.00     0.051 C 
BRANCH  21  27
HETATM   27  O   UNL     1       7.200  15.231  25.515  0.00  0.00    -0.360 OA
HETATM   28  H   UNL     1       7.539  14.362  25.789  0.00  0.00     0.217 HD
ENDBRANCH  21  27
BRANCH  23  29
HETATM   29  O   UNL     1       2.508  15.428  26.434  0.00  0.00    -0.360 OA
HETATM   30  H   UNL     1       2.122  16.303  26.255  0.00  0.00     0.217 HD
ENDBRANCH  23  29
ENDBRANCH   1  20
BRANCH   4  31
HETATM   31  C   UNL     1       8.823  13.339  20.009  0.00  0.00     0.273 C 
HETATM   32  O   UNL     1       8.484  13.328  18.828  0.00  0.00    -0.266 OA
HETATM   33  N   UNL     1       9.999  12.757  20.441  0.00  0.00    -0.356 N 
HETATM   34  H   UNL     1      10.221  12.820  21.429  0.00  0.00     0.162 HD
BRANCH  33  35
HETATM   35  C   UNL     1      10.931  12.117  19.532  0.00  0.00     0.118 C 
HETATM   36  C   UNL     1      12.287  11.850  20.170  0.00  0.00     0.026 C 
ENDBRANCH  33  35
ENDBRANCH   4  31
TORSDOF 8
ENDMDL
MODEL 8
REMARK VINA RESULT:    -7.451      3.031      4.889
REMARK INTER + INTRA:         -12.048
REMARK INTER:                 -10.424
REMARK INTRA:                  -1.624
REMARK UNBOUND:                -1.548
REMARK  8 active torsions:
REMARK  status: ('A' for Active; 'I' for Inactive)
REMARK    1  A    between atoms: O_1  and  C_2 
REMARK    2  A    between atoms: C_4  and  O_5 
REMARK    3  A    between atoms: C_6  and  C_10 
REMARK    4  A    between atoms: C_13  and  C_14 
REMARK       I    between atoms: C_14  and  N_16 
REMARK    5  A    between atoms: N_16  and  C_17 
REMARK    6  A    between atoms: C_19  and  C_20 
REMARK    7  A    between atoms: C_23  and  C_26 
REMARK    8  A    between atoms: C_26  and  N_27 
ROOT
HETATM    1  C   UNL     1       1.705  13.513  24.514  0.00  0.00     0.128 A 
HETATM    2  O   UNL     1       1.702  14.818  24.922  0.00  0.00    -0.211 OA
HETATM    3  N   UNL     1       2.987  15.339  24.900  0.00  0.00    -0.121 NA
HETATM    4  C   UNL     1       3.788  14.325  24.534  0.00  0.00     0.165 A 
HETATM    5  C   UNL     1       3.022  13.141  24.281  0.00  0.00     0.048 A 
ENDROOT
BRANCH   5   6
HETATM    6  C   UNL     1       3.459  11.895  23.676  0.00  0.00    -0.021 A 
HETATM    7  C   UNL     1       4.070  11.847  22.419  0.00  0.00     0.013 A 
HETATM    8  C   UNL     1       4.482  10.620  21.881  0.00  0.00     0.010 A 
HETATM    9  C   UNL     1       4.266   9.426  22.588  0.00  0.00    -0.033 A 
HETATM   10  C   UNL     1       3.668   9.483  23.851  0.00  0.00     0.010 A 
HETATM   11  C   UNL     1       3.279  10.705  24.390  0.00  0.00     0.013 A 
BRANCH   9  12
HETATM   12  C   UNL     1       4.600   8.085  22.000  0.00  0.00     0.273 C 
BRANCH  12  13
HETATM   13  N   UNL     1       3.714   7.646  20.858  0.00  0.00    -0.063 N 
HETATM   14  H   UNL     1       3.180   8.467  20.548  0.00  0.00     0.280 HD
HETATM   15  C   UNL     1       4.509   7.138  19.658  0.00  0.00     0.261 C 
HETATM   16  C   UNL     1       3.551   6.581  18.602  0.00  0.00     0.195 C 
HETATM   17  O   UNL     1       2.768   5.518  19.155  0.00  0.00    -0.388 OA
HETATM   18  C   UNL     1       1.918   5.991  20.203  0.00  0.00     0.195 C 
HETATM   19  C   UNL     1       2.728   6.592  21.355  0.00  0.00     0.261 C 
ENDBRANCH  12  13
ENDBRANCH   9  12
ENDBRANCH   5   6
BRANCH   1  20
HETATM   20  C   UNL     1       0.379  12.906  24.285  0.00  0.00     0.035 A 
HETATM   21  C   UNL     1      -0.156  12.669  23.006  0.00  0.00     0.081 A 
HETATM   22  C   UNL     1      -1.397  12.039  22.852  0.00  0.00     0.074 A 
HETATM   23  C   UNL     1      -2.120  11.647  23.977  0.00  0.00     0.074 A 
HETATM   24  C   UNL     1      -1.632  11.885  25.260  0.00  0.00    -0.028 A 
HETATM   25  C   UNL     1      -0.383  12.506  25.394  0.00  0.00     0.026 A 
HETATM   26  C   UNL     1      -2.375  11.419  26.477  0.00  0.00     0.051 C 
BRANCH  21  27
HETATM   27  O   UNL     1       0.534  13.061  21.894  0.00  0.00    -0.360 OA
HETATM   28  H   UNL     1       0.287  12.502  21.137  0.00  0.00     0.217 HD
ENDBRANCH  21  27
BRANCH  23  29
HETATM   29  O   UNL     1      -3.323  11.013  23.851  0.00  0.00    -0.360 OA
HETATM   30  H   UNL     1      -3.205  10.058  23.994  0.00  0.00     0.217 HD
ENDBRANCH  23  29
ENDBRANCH   1  20
BRANCH   4  31
HETATM   31  C   UNL     1       5.239  14.490  24.353  0.00  0.00     0.273 C 
HETATM   32  O   UNL     1       6.057  14.040  25.152  0.00  0.00    -0.266 OA
HETATM   33  N   UNL     1       5.623  15.093  23.171  0.00  0.00    -0.356 N 
HETATM   34  H   UNL     1       4.892  15.427  22.552  0.00  0.00     0.162 HD
BRANCH  33  35
HETATM   35  C   UNL     1       7.014  15.214  22.775  0.00  0.00     0.118 C 
HETATM   36  C   UNL     1       7.463  14.091  21.851  0.00  0.00     0.026 C 
ENDBRANCH  33  35
ENDBRANCH   4  31
TORSDOF 8
ENDMDL
MODEL 9
REMARK VINA RESULT:    -7.440      3.030      6.663
REMARK INTER + INTRA:         -12.032
REMARK INTER:                 -10.507
REMARK INTRA:                  -1.524
REMARK UNBOUND:                -1.548
REMARK  8 active torsions:
REMARK  status: ('A' for Active; 'I' for Inactive)
REMARK    1  A    between atoms: O_1  and  C_2 
REMARK    2  A    between atoms: C_4  and  O_5 
REMARK    3  A    between atoms: C_6  and  C_10 
REMARK    4  A    between atoms: C_13  and  C_14 
REMARK       I    between atoms: C_14  and  N_16 
REMARK    5  A    between atoms: N_16  and  C_17 
REMARK    6  A    between atoms: C_19  and  C_20 
REMARK    7  A    between atoms: C_23  and  C_26 
REMARK    8  A    between atoms: C_26  and  N_27 
ROOT
HETATM    1  C   UNL     1       6.540  10.798  21.860  0.00  0.00     0.128 A 
HETATM    2  O   UNL     1       7.885  10.629  21.679  0.00  0.00    -0.211 OA
HETATM    3  N   UNL     1       8.599  11.498  22.491  0.00  0.00    -0.121 NA
HETATM    4  C   UNL     1       7.682  12.244  23.127  0.00  0.00     0.165 A 
HETATM    5  C   UNL     1       6.357  11.841  22.757  0.00  0.00     0.048 A 
ENDROOT
BRANCH   5   6
HETATM    6  C   UNL     1       5.094  12.239  23.352  0.00  0.00    -0.021 A 
HETATM    7  C   UNL     1       4.428  11.448  24.294  0.00  0.00     0.013 A 
HETATM    8  C   UNL     1       3.214  11.880  24.846  0.00  0.00     0.010 A 
HETATM    9  C   UNL     1       2.644  13.098  24.443  0.00  0.00    -0.033 A 
HETATM   10  C   UNL     1       3.322  13.892  23.512  0.00  0.00     0.010 A 
HETATM   11  C   UNL     1       4.537  13.469  22.981  0.00  0.00     0.013 A 
BRANCH   9  12
HETATM   12  C   UNL     1       1.296  13.544  24.935  0.00  0.00     0.273 C 
BRANCH  12  13
HETATM   13  N   UNL     1       0.219  12.486  24.903  0.00  0.00    -0.063 N 
HETATM   14  H   UNL     1       0.676  11.576  25.034  0.00  0.00     0.280 HD
HETATM   15  C   UNL     1      -0.801  12.652  26.026  0.00  0.00     0.261 C 
HETATM   16  C   UNL     1      -1.935  11.638  25.848  0.00  0.00     0.195 C 
HETATM   17  O   UNL     1      -2.570  11.823  24.579  0.00  0.00    -0.388 OA
HETATM   18  C   UNL     1      -1.668  11.553  23.503  0.00  0.00     0.195 C 
HETATM   19  C   UNL     1      -0.458  12.491  23.535  0.00  0.00     0.261 C 
ENDBRANCH  12  13
ENDBRANCH   9  12
ENDBRANCH   5   6
BRANCH   1  20
HETATM   20  C   UNL     1       5.672   9.791  21.219  0.00  0.00     0.035 A 
HETATM   21  C   UNL     1       5.623   9.582  19.829  0.00  0.00     0.081 A 
HETATM   22  C   UNL     1       4.820   8.573  19.282  0.00  0.00     0.074 A 
HETATM   23  C   UNL     1       4.051   7.767  20.121  0.00  0.00     0.074 A 
HETATM   24  C   UNL     1       4.058   7.960  21.501  0.00  0.00    -0.028 A 
HETATM   25  C   UNL     1       4.877   8.967  22.030  0.00  0.00     0.026 A 
HETATM   26  C   UNL     1       3.278   7.065  22.418  0.00  0.00     0.051 C 
BRANCH  21  27
HETATM   27  O   UNL     1       6.359  10.372  18.992  0.00  0.00    -0.360 OA
HETATM   28  H   UNL     1       6.310  10.029  18.084  0.00  0.00     0.217 HD
ENDBRANCH  21  27
BRANCH  23  29
HETATM   29  O   UNL     1       3.277   6.764  19.613  0.00  0.00    -0.360 OA
HETATM   30  H   UNL     1       2.701   7.120  18.915  0.00  0.00     0.217 HD
ENDBRANCH  23  29
ENDBRANCH   1  20
BRANCH   4  31
HETATM   31  C   UNL     1       8.046  13.266  24.121  0.00  0.00     0.273 C 
HETATM   32  O   UNL     1       7.762  13.156  25.312  0.00  0.00    -0.266 OA
HETATM   33  N   UNL     1       8.821  14.306  23.644  0.00  0.00    -0.356 N 
HETATM   34  H   UNL     1       9.028  14.322  22.651  0.00  0.00     0.162 HD
BRANCH  33  35
HETATM   35  C   UNL     1       9.377  15.325  24.513  0.00  0.00     0.118 C 
HETATM   36  C   UNL     1      10.577  16.032  23.899  0.00  0.00     0.026 C 
ENDBRANCH  33  35
ENDBRANCH   4  31
TORSDOF 8
ENDMDL
