MODEL 1
REMARK VINA RESULT:    -7.188      0.000      0.000
REMARK INTER + INTRA:         -10.173
REMARK INTER:                  -8.682
REMARK INTRA:                  -1.491
REMARK UNBOUND:                -1.304
REMARK  5 active torsions:
REMARK  status: ('A' for Active; 'I' for Inactive)
REMARK    1  A    between atoms: C_2  and  C_3 
REMARK    2  A    between atoms: C_5  and  C_6 
REMARK    3  A    between atoms: C_12  and  C_13 
REMARK    4  A    between atoms: C_20  and  O_21 
REMARK    5  A    between atoms: C_23  and  O_24 
ROOT
HETATM    1  C   UNL     1       0.294   9.179  26.445  0.00  0.00     0.103 C 
HETATM    2  N   UNL     1       0.094   8.556  27.620  0.00  0.00    -0.173 NA
HETATM    3  N   UNL     1      -0.584   9.431  28.357  0.00  0.00    -0.281 N 
HETATM    4  H   UNL     1      -0.757   9.197  29.328  0.00  0.00     0.189 HD
HETATM    5  C   UNL     1      -0.943  10.568  27.696  0.00  0.00     0.037 C 
HETATM    6  C   UNL     1      -1.682  11.631  28.424  0.00  0.00     0.070 C 
HETATM    7  C   UNL     1      -0.466  10.415  26.396  0.00  0.00     0.031 C 
ENDROOT
BRANCH   1   8
HETATM    8  C   UNL     1       1.214   8.544  25.479  0.00  0.00     0.029 C 
HETATM    9  C   UNL     1       2.270   9.264  24.897  0.00  0.00     0.026 C 
HETATM   10  C   UNL     1       3.131   8.676  23.953  0.00  0.00    -0.024 C 
HETATM   11  C   UNL     1       3.039   7.303  23.732  0.00  0.00     0.074 C 
HETATM   12  C   UNL     1       2.011   6.555  24.302  0.00  0.00     0.074 C 
HETATM   13  C   UNL     1       1.093   7.185  25.131  0.00  0.00     0.081 C 
BRANCH  10  14
HETATM   14  C   UNL     1       4.092   9.545  23.182  0.00  0.00     0.037 C 
HETATM   15  C   UNL     1       3.841  11.028  23.371  0.00  0.00     0.010 C 
ENDBRANCH  10  14
BRANCH  11  16
HETATM   16  O   UNL     1       3.983   6.687  22.959  0.00  0.00    -0.360 OA
HETATM   17  H   UNL     1       4.587   7.374  22.627  0.00  0.00     0.217 HD
ENDBRANCH  11  16
BRANCH  13  18
HETATM   18  O   UNL     1       0.069   6.392  25.599  0.00  0.00    -0.360 OA
HETATM   19  H   UNL     1       0.214   6.313  26.569  0.00  0.00     0.217 HD
ENDBRANCH  13  18
ENDBRANCH   1   8
BRANCH   7  20
HETATM   20  C   UNL     1      -0.615  11.413  25.320  0.00  0.00     0.000 C 
HETATM   21  C   UNL     1       0.421  12.334  25.079  0.00  0.00     0.014 C 
HETATM   22  C   UNL     1       0.417  13.167  23.955  0.00  0.00     0.001 C 
HETATM   23  C   UNL     1      -0.598  13.056  23.015  0.00  0.00     0.002 C 
HETATM   24  C   UNL     1      -1.668  12.200  23.261  0.00  0.00     0.024 C 
HETATM   25  C   UNL     1      -1.714  11.437  24.437  0.00  0.00     0.045 C 
HETATM   26 CL   UNL     1      -3.196  10.595  24.742  0.00  0.00    -0.083 Cl
ENDBRANCH   7  20
TORSDOF 5
ENDMDL
MODEL 2
REMARK VINA RESULT:    -6.944      2.936      5.233
REMARK INTER + INTRA:          -9.871
REMARK INTER:                  -9.007
REMARK INTRA:                  -0.865
REMARK UNBOUND:                -1.304
REMARK  5 active torsions:
REMARK  status: ('A' for Active; 'I' for Inactive)
REMARK    1  A    between atoms: C_2  and  C_3 
REMARK    2  A    between atoms: C_5  and  C_6 
REMARK    3  A    between atoms: C_12  and  C_13 
REMARK    4  A    between atoms: C_20  and  O_21 
REMARK    5  A    between atoms: C_23  and  O_24 
ROOT
HETATM    1  C   UNL     1      -1.194  10.336  25.904  0.00  0.00     0.103 C 
HETATM    2  N   UNL     1      -2.485  10.618  25.653  0.00  0.00    -0.173 NA
HETATM    3  N   UNL     1      -2.460  11.398  24.576  0.00  0.00    -0.281 N 
HETATM    4  H   UNL     1      -3.334  11.810  24.270  0.00  0.00     0.189 HD
HETATM    5  C   UNL     1      -1.223  11.564  24.029  0.00  0.00     0.037 C 
HETATM    6  C   UNL     1      -1.065  12.438  22.838  0.00  0.00     0.070 C 
HETATM    7  C   UNL     1      -0.358  10.808  24.816  0.00  0.00     0.031 C 
ENDROOT
BRANCH   1   8
HETATM    8  C   UNL     1      -0.874   9.659  27.177  0.00  0.00     0.029 C 
HETATM    9  C   UNL     1      -0.399   8.338  27.201  0.00  0.00     0.026 C 
HETATM   10  C   UNL     1      -0.123   7.675  28.411  0.00  0.00    -0.024 C 
HETATM   11  C   UNL     1      -0.152   8.411  29.595  0.00  0.00     0.074 C 
HETATM   12  C   UNL     1      -0.606   9.728  29.607  0.00  0.00     0.074 C 
HETATM   13  C   UNL     1      -0.998  10.322  28.414  0.00  0.00     0.081 C 
BRANCH  10  14
HETATM   14  C   UNL     1       0.152   6.193  28.399  0.00  0.00     0.037 C 
HETATM   15  C   UNL     1      -0.880   5.399  27.622  0.00  0.00     0.010 C 
ENDBRANCH  10  14
BRANCH  11  16
HETATM   16  O   UNL     1       0.289   7.831  30.750  0.00  0.00    -0.360 OA
HETATM   17  H   UNL     1       1.246   7.684  30.661  0.00  0.00     0.217 HD
ENDBRANCH  11  16
BRANCH  13  18
HETATM   18  O   UNL     1      -1.499  11.600  28.520  0.00  0.00    -0.360 OA
HETATM   19  H   UNL     1      -2.252  11.540  29.151  0.00  0.00     0.217 HD
ENDBRANCH  13  18
ENDBRANCH   1   8
BRANCH   7  20
HETATM   20  C   UNL     1       1.098  10.697  24.602  0.00  0.00     0.000 C 
HETATM   21  C   UNL     1       1.695   9.424  24.535  0.00  0.00     0.014 C 
HETATM   22  C   UNL     1       3.027   9.257  24.143  0.00  0.00     0.001 C 
HETATM   23  C   UNL     1       3.777  10.358  23.750  0.00  0.00     0.002 C 
HETATM   24  C   UNL     1       3.232  11.633  23.868  0.00  0.00     0.024 C 
HETATM   25  C   UNL     1       1.929  11.809  24.357  0.00  0.00     0.045 C 
HETATM   26 CL   UNL     1       1.450  13.443  24.679  0.00  0.00    -0.083 Cl
ENDBRANCH   7  20
TORSDOF 5
ENDMDL
MODEL 3
REMARK VINA RESULT:    -6.838      5.143      7.185
REMARK INTER + INTRA:          -9.741
REMARK INTER:                  -8.359
REMARK INTRA:                  -1.382
REMARK UNBOUND:                -1.304
REMARK  5 active torsions:
REMARK  status: ('A' for Active; 'I' for Inactive)
REMARK    1  A    between atoms: C_2  and  C_3 
REMARK    2  A    between atoms: C_5  and  C_6 
REMARK    3  A    between atoms: C_12  and  C_13 
REMARK    4  A    between atoms: C_20  and  O_21 
REMARK    5  A    between atoms: C_23  and  O_24 
ROOT
HETATM    1  C   UNL     1       3.379   5.454  21.010  0.00  0.00     0.103 C 
HETATM    2  N   UNL     1       3.841   4.192  21.039  0.00  0.00    -0.173 NA
HETATM    3  N   UNL     1       4.851   4.219  21.904  0.00  0.00    -0.281 N 
HETATM    4  H   UNL     1       5.411   3.380  22.004  0.00  0.00     0.189 HD
HETATM    5  C   UNL     1       5.019   5.415  22.537  0.00  0.00     0.037 C 
HETATM    6  C   UNL     1       6.134   5.575  23.506  0.00  0.00     0.070 C 
HETATM    7  C   UNL     1       4.013   6.244  22.050  0.00  0.00     0.031 C 
ENDROOT
BRANCH   1   8
HETATM    8  C   UNL     1       2.386   5.798  19.971  0.00  0.00     0.029 C 
HETATM    9  C   UNL     1       2.629   6.820  19.040  0.00  0.00     0.026 C 
HETATM   10  C   UNL     1       1.675   7.175  18.069  0.00  0.00    -0.024 C 
HETATM   11  C   UNL     1       0.545   6.371  17.921  0.00  0.00     0.074 C 
HETATM   12  C   UNL     1       0.279   5.341  18.819  0.00  0.00     0.074 C 
HETATM   13  C   UNL     1       1.173   5.091  19.851  0.00  0.00     0.081 C 
BRANCH  10  14
HETATM   14  C   UNL     1       1.877   8.426  17.253  0.00  0.00     0.037 C 
HETATM   15  C   UNL     1       1.973   9.682  18.096  0.00  0.00     0.010 C 
ENDBRANCH  10  14
BRANCH  11  16
HETATM   16  O   UNL     1      -0.296   6.593  16.867  0.00  0.00    -0.360 OA
HETATM   17  H   UNL     1      -0.008   6.023  16.134  0.00  0.00     0.217 HD
ENDBRANCH  11  16
BRANCH  13  18
HETATM   18  O   UNL     1       0.804   4.103  20.735  0.00  0.00    -0.360 OA
HETATM   19  H   UNL     1      -0.141   4.277  20.951  0.00  0.00     0.217 HD
ENDBRANCH  13  18
ENDBRANCH   1   8
BRANCH   7  20
HETATM   20  C   UNL     1       3.811   7.650  22.449  0.00  0.00     0.000 C 
HETATM   21  C   UNL     1       3.095   7.941  23.626  0.00  0.00     0.014 C 
HETATM   22  C   UNL     1       3.042   9.236  24.152  0.00  0.00     0.001 C 
HETATM   23  C   UNL     1       3.754  10.261  23.543  0.00  0.00     0.002 C 
HETATM   24  C   UNL     1       4.416  10.015  22.344  0.00  0.00     0.024 C 
HETATM   25  C   UNL     1       4.386   8.738  21.762  0.00  0.00     0.045 C 
HETATM   26 CL   UNL     1       5.041   8.613  20.164  0.00  0.00    -0.083 Cl
ENDBRANCH   7  20
TORSDOF 5
ENDMDL
MODEL 4
REMARK VINA RESULT:    -6.758      2.645      5.384
REMARK INTER + INTRA:          -9.642
REMARK INTER:                  -8.426
REMARK INTRA:                  -1.216
REMARK UNBOUND:                -1.304
REMARK  5 active torsions:
REMARK  status: ('A' for Active; 'I' for Inactive)
REMARK    1  A    between atoms: C_2  and  C_3 
REMARK    2  A    between atoms: C_5  and  C_6 
REMARK    3  A    between atoms: C_12  and  C_13 
REMARK    4  A    between atoms: C_20  and  O_21 
REMARK    5  A    between atoms: C_23  and  O_24 
ROOT
HETATM    1  C   UNL     1       1.831   9.021  25.619  0.00  0.00     0.103 C 
HETATM    2  N   UNL     1       1.833   8.690  26.922  0.00  0.00    -0.173 NA
HETATM    3  N   UNL     1       2.800   7.786  27.042  0.00  0.00    -0.281 N 
HETATM    4  H   UNL     1       2.909   7.325  27.939  0.00  0.00     0.189 HD
HETATM    5  C   UNL     1       3.519   7.574  25.903  0.00  0.00     0.037 C 
HETATM    6  C   UNL     1       4.609   6.565  25.907  0.00  0.00     0.070 C 
HETATM    7  C   UNL     1       2.978   8.435  24.951  0.00  0.00     0.031 C 
ENDROOT
BRANCH   1   8
HETATM    8  C   UNL     1       0.715   9.853  25.123  0.00  0.00     0.029 C 
HETATM    9  C   UNL     1       0.911  11.196  24.762  0.00  0.00     0.026 C 
HETATM   10  C   UNL     1      -0.152  12.004  24.320  0.00  0.00    -0.024 C 
HETATM   11  C   UNL     1      -1.385  11.402  24.068  0.00  0.00     0.074 C 
HETATM   12  C   UNL     1      -1.611  10.070  24.402  0.00  0.00     0.074 C 
HETATM   13  C   UNL     1      -0.580   9.325  24.959  0.00  0.00     0.081 C 
BRANCH  10  14
HETATM   14  C   UNL     1       0.055  13.490  24.174  0.00  0.00     0.037 C 
HETATM   15  C   UNL     1       1.316  13.987  24.854  0.00  0.00     0.010 C 
ENDBRANCH  10  14
BRANCH  11  16
HETATM   16  O   UNL     1      -2.371  12.133  23.467  0.00  0.00    -0.360 OA
HETATM   17  H   UNL     1      -2.242  13.064  23.716  0.00  0.00     0.217 HD
ENDBRANCH  11  16
BRANCH  13  18
HETATM   18  O   UNL     1      -0.904   8.038  25.326  0.00  0.00    -0.360 OA
HETATM   19  H   UNL     1      -1.783   8.098  25.764  0.00  0.00     0.217 HD
ENDBRANCH  13  18
ENDBRANCH   1   8
BRANCH   7  20
HETATM   20  C   UNL     1       3.439   8.542  23.553  0.00  0.00     0.000 C 
HETATM   21  C   UNL     1       3.945   9.768  23.082  0.00  0.00     0.014 C 
HETATM   22  C   UNL     1       4.571   9.874  21.835  0.00  0.00     0.001 C 
HETATM   23  C   UNL     1       4.757   8.740  21.056  0.00  0.00     0.002 C 
HETATM   24  C   UNL     1       4.210   7.529  21.468  0.00  0.00     0.024 C 
HETATM   25  C   UNL     1       3.494   7.444  22.672  0.00  0.00     0.045 C 
HETATM   26 CL   UNL     1       2.664   5.951  22.961  0.00  0.00    -0.083 Cl
ENDBRANCH   7  20
TORSDOF 5
ENDMDL
MODEL 5
REMARK VINA RESULT:    -6.731      4.404      6.968
REMARK INTER + INTRA:          -9.608
REMARK INTER:                  -8.145
REMARK INTRA:                  -1.463
REMARK UNBOUND:                -1.304
REMARK  5 active torsions:
REMARK  status: ('A' for Active; 'I' for Inactive)
REMARK    1  A    between atoms: C_2  and  C_3 
REMARK    2  A    between atoms: C_5  and  C_6 
REMARK    3  A    between atoms: C_12  and  C_13 
REMARK    4  A    between atoms: C_20  and  O_21 
REMARK    5  A    between atoms: C_23  and  O_24 
ROOT
HETATM    1  C   UNL     1       4.040   5.837  22.606  0.00  0.00     0.103 C 
HETATM    2  N   UNL     1       4.715   4.844  23.212  0.00  0.00    -0.173 NA
HETATM    3  N   UNL     1       5.044   4.009  22.231  0.00  0.00    -0.281 N 
HETATM    4  H   UNL     1       5.481   3.130  22.485  0.00  0.00     0.189 HD
HETATM    5  C   UNL     1       4.717   4.448  20.982  0.00  0.00     0.037 C 
HETATM    6  C   UNL     1       5.011   3.587  19.808  0.00  0.00     0.070 C 
HETATM    7  C   UNL     1       4.130   5.698  21.164  0.00  0.00     0.031 C 
ENDROOT
BRANCH   1   8
HETATM    8  C   UNL     1       3.348   6.820  23.465  0.00  0.00     0.029 C 
HETATM    9  C   UNL     1       3.612   8.195  23.356  0.00  0.00     0.026 C 
HETATM   10  C   UNL     1       2.981   9.135  24.192  0.00  0.00    -0.024 C 
HETATM   11  C   UNL     1       1.944   8.702  25.017  0.00  0.00     0.074 C 
HETATM   12  C   UNL     1       1.647   7.347  25.140  0.00  0.00     0.074 C 
HETATM   13  C   UNL     1       2.373   6.423  24.399  0.00  0.00     0.081 C 
BRANCH  10  14
HETATM   14  C   UNL     1       3.467  10.562  24.204  0.00  0.00     0.037 C 
HETATM   15  C   UNL     1       4.216  10.950  22.944  0.00  0.00     0.010 C 
ENDBRANCH  10  14
BRANCH  11  16
HETATM   16  O   UNL     1       1.203   9.627  25.696  0.00  0.00    -0.360 OA
HETATM   17  H   UNL     1       0.264   9.428  25.538  0.00  0.00     0.217 HD
ENDBRANCH  11  16
BRANCH  13  18
HETATM   18  O   UNL     1       2.066   5.100  24.629  0.00  0.00    -0.360 OA
HETATM   19  H   UNL     1       1.083   5.048  24.619  0.00  0.00     0.217 HD
ENDBRANCH  13  18
ENDBRANCH   1   8
BRANCH   7  20
HETATM   20  C   UNL     1       3.607   6.549  20.079  0.00  0.00     0.000 C 
HETATM   21  C   UNL     1       2.485   6.124  19.343  0.00  0.00     0.014 C 
HETATM   22  C   UNL     1       1.833   6.973  18.442  0.00  0.00     0.001 C 
HETATM   23  C   UNL     1       2.255   8.288  18.300  0.00  0.00     0.002 C 
HETATM   24  C   UNL     1       3.400   8.715  18.967  0.00  0.00     0.024 C 
HETATM   25  C   UNL     1       4.113   7.834  19.794  0.00  0.00     0.045 C 
HETATM   26 CL   UNL     1       5.641   8.404  20.377  0.00  0.00    -0.083 Cl
ENDBRANCH   7  20
TORSDOF 5
ENDMDL
MODEL 6
REMARK VINA RESULT:    -6.654      3.453      5.536
REMARK INTER + INTRA:          -9.513
REMARK INTER:                  -8.286
REMARK INTRA:                  -1.227
REMARK UNBOUND:                -1.304
REMARK  5 active torsions:
REMARK  status: ('A' for Active; 'I' for Inactive)
REMARK    1  A    between atoms: C_2  and  C_3 
REMARK    2  A    between atoms: C_5  and  C_6 
REMARK    3  A    between atoms: C_12  and  C_13 
REMARK    4  A    between atoms: C_20  and  O_21 
REMARK    5  A    between atoms: C_23  and  O_24 
ROOT
HETATM    1  C   UNL     1      -0.071   8.246  26.114  0.00  0.00     0.103 C 
HETATM    2  N   UNL     1      -0.750   7.442  25.278  0.00  0.00    -0.173 NA
HETATM    3  N   UNL     1      -0.649   6.229  25.815  0.00  0.00    -0.281 N 
HETATM    4  H   UNL     1      -1.014   5.445  25.285  0.00  0.00     0.189 HD
HETATM    5  C   UNL     1      -0.026   6.200  27.027  0.00  0.00     0.037 C 
HETATM    6  C   UNL     1       0.170   4.897  27.713  0.00  0.00     0.070 C 
HETATM    7  C   UNL     1       0.297   7.523  27.317  0.00  0.00     0.031 C 
ENDROOT
BRANCH   1   8
HETATM    8  C   UNL     1       0.186   9.633  25.675  0.00  0.00     0.029 C 
HETATM    9  C   UNL     1       1.343   9.967  24.953  0.00  0.00     0.026 C 
HETATM   10  C   UNL     1       1.610  11.291  24.559  0.00  0.00    -0.024 C 
HETATM   11  C   UNL     1       0.616  12.252  24.736  0.00  0.00     0.074 C 
HETATM   12  C   UNL     1      -0.550  11.953  25.437  0.00  0.00     0.074 C 
HETATM   13  C   UNL     1      -0.735  10.668  25.931  0.00  0.00     0.081 C 
BRANCH  10  14
HETATM   14  C   UNL     1       2.966  11.640  24.002  0.00  0.00     0.037 C 
HETATM   15  C   UNL     1       3.825  10.425  23.711  0.00  0.00     0.010 C 
ENDBRANCH  10  14
BRANCH  11  16
HETATM   16  O   UNL     1       0.787  13.495  24.196  0.00  0.00    -0.360 OA
HETATM   17  H   UNL     1       0.171  14.100  24.645  0.00  0.00     0.217 HD
ENDBRANCH  11  16
BRANCH  13  18
HETATM   18  O   UNL     1      -1.879  10.472  26.671  0.00  0.00    -0.360 OA
HETATM   19  H   UNL     1      -1.700  10.875  27.551  0.00  0.00     0.217 HD
ENDBRANCH  13  18
ENDBRANCH   1   8
BRANCH   7  20
HETATM   20  C   UNL     1       0.998   7.972  28.535  0.00  0.00     0.000 C 
HETATM   21  C   UNL     1       0.255   8.490  29.613  0.00  0.00     0.014 C 
HETATM   22  C   UNL     1       0.844   8.747  30.855  0.00  0.00     0.001 C 
HETATM   23  C   UNL     1       2.180   8.435  31.066  0.00  0.00     0.002 C 
HETATM   24  C   UNL     1       2.953   7.983  30.000  0.00  0.00     0.024 C 
HETATM   25  C   UNL     1       2.387   7.821  28.727  0.00  0.00     0.045 C 
HETATM   26 CL   UNL     1       3.493   7.483  27.438  0.00  0.00    -0.083 Cl
ENDBRANCH   7  20
TORSDOF 5
ENDMDL
MODEL 7
REMARK VINA RESULT:    -6.595      7.699      9.617
REMARK INTER + INTRA:          -9.441
REMARK INTER:                  -8.162
REMARK INTRA:                  -1.279
REMARK UNBOUND:                -1.304
REMARK  5 active torsions:
REMARK  status: ('A' for Active; 'I' for Inactive)
REMARK    1  A    between atoms: C_2  and  C_3 
REMARK    2  A    between atoms: C_5  and  C_6 
REMARK    3  A    between atoms: C_12  and  C_13 
REMARK    4  A    between atoms: C_20  and  O_21 
REMARK    5  A    between atoms: C_23  and  O_24 
ROOT
HETATM    1  C   UNL     1       4.670   6.954  18.831  0.00  0.00     0.103 C 
HETATM    2  N   UNL     1       5.467   7.948  18.399  0.00  0.00    -0.173 NA
HETATM    3  N   UNL     1       6.501   7.942  19.235  0.00  0.00    -0.281 N 
HETATM    4  H   UNL     1       7.184   8.686  19.147  0.00  0.00     0.189 HD
HETATM    5  C   UNL     1       6.489   6.923  20.141  0.00  0.00     0.037 C 
HETATM    6  C   UNL     1       7.580   6.829  21.145  0.00  0.00     0.070 C 
HETATM    7  C   UNL     1       5.344   6.183  19.860  0.00  0.00     0.031 C 
ENDROOT
BRANCH   1   8
HETATM    8  C   UNL     1       3.323   6.846  18.235  0.00  0.00     0.029 C 
HETATM    9  C   UNL     1       2.823   5.615  17.780  0.00  0.00     0.026 C 
HETATM   10  C   UNL     1       1.554   5.510  17.182  0.00  0.00    -0.024 C 
HETATM   11  C   UNL     1       0.712   6.620  17.209  0.00  0.00     0.074 C 
HETATM   12  C   UNL     1       1.170   7.854  17.664  0.00  0.00     0.074 C 
HETATM   13  C   UNL     1       2.473   7.965  18.132  0.00  0.00     0.081 C 
BRANCH  10  14
HETATM   14  C   UNL     1       1.161   4.226  16.497  0.00  0.00     0.037 C 
HETATM   15  C   UNL     1       1.998   3.038  16.927  0.00  0.00     0.010 C 
ENDBRANCH  10  14
BRANCH  11  16
HETATM   16  O   UNL     1      -0.584   6.483  16.798  0.00  0.00    -0.360 OA
HETATM   17  H   UNL     1      -0.615   5.752  16.157  0.00  0.00     0.217 HD
ENDBRANCH  11  16
BRANCH  13  18
HETATM   18  O   UNL     1       2.870   9.231  18.498  0.00  0.00    -0.360 OA
HETATM   19  H   UNL     1       2.508   9.374  19.402  0.00  0.00     0.217 HD
ENDBRANCH  13  18
ENDBRANCH   1   8
BRANCH   7  20
HETATM   20  C   UNL     1       4.913   4.982  20.600  0.00  0.00     0.000 C 
HETATM   21  C   UNL     1       4.859   3.740  19.939  0.00  0.00     0.014 C 
HETATM   22  C   UNL     1       4.648   2.546  20.635  0.00  0.00     0.001 C 
HETATM   23  C   UNL     1       4.545   2.560  22.019  0.00  0.00     0.002 C 
HETATM   24  C   UNL     1       4.530   3.778  22.692  0.00  0.00     0.024 C 
HETATM   25  C   UNL     1       4.640   4.984  21.984  0.00  0.00     0.045 C 
HETATM   26 CL   UNL     1       4.373   6.432  22.896  0.00  0.00    -0.083 Cl
ENDBRANCH   7  20
TORSDOF 5
ENDMDL
MODEL 8
REMARK VINA RESULT:    -6.593      3.133      5.975
REMARK INTER + INTRA:          -9.438
REMARK INTER:                  -8.107
REMARK INTRA:                  -1.331
REMARK UNBOUND:                -1.304
REMARK  5 active torsions:
REMARK  status: ('A' for Active; 'I' for Inactive)
REMARK    1  A    between atoms: C_2  and  C_3 
REMARK    2  A    between atoms: C_5  and  C_6 
REMARK    3  A    between atoms: C_12  and  C_13 
REMARK    4  A    between atoms: C_20  and  O_21 
REMARK    5  A    between atoms: C_23  and  O_24 
ROOT
HETATM    1  C   UNL     1       3.142   7.462  24.934  0.00  0.00     0.103 C 
HETATM    2  N   UNL     1       3.670   7.105  26.118  0.00  0.00    -0.173 NA
HETATM    3  N   UNL     1       4.725   6.357  25.807  0.00  0.00    -0.281 N 
HETATM    4  H   UNL     1       5.219   5.898  26.565  0.00  0.00     0.189 HD
HETATM    5  C   UNL     1       4.993   6.286  24.472  0.00  0.00     0.037 C 
HETATM    6  C   UNL     1       6.132   5.456  24.002  0.00  0.00     0.070 C 
HETATM    7  C   UNL     1       4.028   7.074  23.852  0.00  0.00     0.031 C 
ENDROOT
BRANCH   1   8
HETATM    8  C   UNL     1       1.821   8.124  24.944  0.00  0.00     0.029 C 
HETATM    9  C   UNL     1       1.695   9.504  24.717  0.00  0.00     0.026 C 
HETATM   10  C   UNL     1       0.445  10.147  24.756  0.00  0.00    -0.024 C 
HETATM   11  C   UNL     1      -0.704   9.363  24.845  0.00  0.00     0.074 C 
HETATM   12  C   UNL     1      -0.618   7.990  25.058  0.00  0.00     0.074 C 
HETATM   13  C   UNL     1       0.634   7.394  25.145  0.00  0.00     0.081 C 
BRANCH  10  14
HETATM   14  C   UNL     1       0.384  11.653  24.746  0.00  0.00     0.037 C 
HETATM   15  C   UNL     1       1.688  12.302  24.324  0.00  0.00     0.010 C 
ENDBRANCH  10  14
BRANCH  11  16
HETATM   16  O   UNL     1      -1.927   9.955  24.701  0.00  0.00    -0.360 OA
HETATM   17  H   UNL     1      -2.072  10.109  23.751  0.00  0.00     0.217 HD
ENDBRANCH  11  16
BRANCH  13  18
HETATM   18  O   UNL     1       0.635   6.046  25.426  0.00  0.00    -0.360 OA
HETATM   19  H   UNL     1       0.453   5.974  26.391  0.00  0.00     0.217 HD
ENDBRANCH  13  18
ENDBRANCH   1   8
BRANCH   7  20
HETATM   20  C   UNL     1       3.919   7.284  22.395  0.00  0.00     0.000 C 
HETATM   21  C   UNL     1       4.352   8.501  21.835  0.00  0.00     0.014 C 
HETATM   22  C   UNL     1       4.453   8.677  20.451  0.00  0.00     0.001 C 
HETATM   23  C   UNL     1       4.178   7.619  19.596  0.00  0.00     0.002 C 
HETATM   24  C   UNL     1       3.686   6.427  20.119  0.00  0.00     0.024 C 
HETATM   25  C   UNL     1       3.489   6.283  21.501  0.00  0.00     0.045 C 
HETATM   26 CL   UNL     1       2.656   4.851  22.007  0.00  0.00    -0.083 Cl
ENDBRANCH   7  20
TORSDOF 5
ENDMDL
MODEL 9
REMARK VINA RESULT:    -6.476      2.763      5.087
REMARK INTER + INTRA:          -9.294
REMARK INTER:                  -7.990
REMARK INTRA:                  -1.304
REMARK UNBOUND:                -1.304
REMARK  5 active torsions:
REMARK  status: ('A' for Active; 'I' for Inactive)
REMARK    1  A    between atoms: C_2  and  C_3 
REMARK    2  A    between atoms: C_5  and  C_6 
REMARK    3  A    between atoms: C_12  and  C_13 
REMARK    4  A    between atoms: C_20  and  O_21 
REMARK    5  A    between atoms: C_23  and  O_24 
ROOT
HETATM    1  C   UNL     1      -1.006  10.455  26.861  0.00  0.00     0.103 C 
HETATM    2  N   UNL     1      -1.545  10.874  28.020  0.00  0.00    -0.173 NA
HETATM    3  N   UNL     1      -1.080  10.030  28.936  0.00  0.00    -0.281 N 
HETATM    4  H   UNL     1      -1.445  10.108  29.879  0.00  0.00     0.189 HD
HETATM    5  C   UNL     1      -0.170   9.131  28.464  0.00  0.00     0.037 C 
HETATM    6  C   UNL     1       0.399   8.118  29.390  0.00  0.00     0.070 C 
HETATM    7  C   UNL     1      -0.014   9.426  27.112  0.00  0.00     0.031 C 
ENDROOT
BRANCH   1   8
HETATM    8  C   UNL     1      -1.507  11.064  25.611  0.00  0.00     0.029 C 
HETATM    9  C   UNL     1      -0.647  11.749  24.738  0.00  0.00     0.026 C 
HETATM   10  C   UNL     1      -1.122  12.359  23.563  0.00  0.00    -0.024 C 
HETATM   11  C   UNL     1      -2.440  12.119  23.174  0.00  0.00     0.074 C 
HETATM   12  C   UNL     1      -3.317  11.433  24.009  0.00  0.00     0.074 C 
HETATM   13  C   UNL     1      -2.858  10.950  25.228  0.00  0.00     0.081 C 
BRANCH  10  14
HETATM   14  C   UNL     1      -0.217  13.281  22.786  0.00  0.00     0.037 C 
HETATM   15  C   UNL     1       0.484  14.305  23.657  0.00  0.00     0.010 C 
ENDBRANCH  10  14
BRANCH  11  16
HETATM   16  O   UNL     1      -2.861  12.551  21.948  0.00  0.00    -0.360 OA
HETATM   17  H   UNL     1      -3.533  13.240  22.092  0.00  0.00     0.217 HD
ENDBRANCH  11  16
BRANCH  13  18
HETATM   18  O   UNL     1      -3.803  10.344  26.025  0.00  0.00    -0.360 OA
HETATM   19  H   UNL     1      -3.423  10.340  26.933  0.00  0.00     0.217 HD
ENDBRANCH  13  18
ENDBRANCH   1   8
BRANCH   7  20
HETATM   20  C   UNL     1       0.873   8.696  26.186  0.00  0.00     0.000 C 
HETATM   21  C   UNL     1       1.973   9.360  25.612  0.00  0.00     0.014 C 
HETATM   22  C   UNL     1       2.951   8.670  24.887  0.00  0.00     0.001 C 
HETATM   23  C   UNL     1       2.880   7.288  24.771  0.00  0.00     0.002 C 
HETATM   24  C   UNL     1       1.771   6.615  25.274  0.00  0.00     0.024 C 
HETATM   25  C   UNL     1       0.740   7.320  25.913  0.00  0.00     0.045 C 
HETATM   26 CL   UNL     1      -0.689   6.412  26.283  0.00  0.00    -0.083 Cl
ENDBRANCH   7  20
TORSDOF 5
ENDMDL
