MODEL 1
REMARK VINA RESULT:    -7.298      0.000      0.000
REMARK INTER + INTRA:         -10.619
REMARK INTER:                  -9.872
REMARK INTRA:                  -0.746
REMARK UNBOUND:                -0.761
REMARK  7 active torsions:
REMARK  status: ('A' for Active; 'I' for Inactive)
REMARK    1  A    between atoms: C_2  and  C_3 
REMARK    2  A    between atoms: C_3  and  O_4 
REMARK    3  A    between atoms: C_3  and  C_5 
REMARK    4  A    between atoms: C_12  and  C_16 
REMARK    5  A    between atoms: C_13  and  O_15 
REMARK       I    between atoms: C_16  and  N_18 
REMARK    6  A    between atoms: N_18  and  C_20 
REMARK    7  A    between atoms: C_23  and  N_26 
ROOT
HETATM    1  C   UNL     1       1.945   5.921  17.802  0.00  0.00     0.095 A 
HETATM    2  N   UNL     1       2.580   5.720  16.630  0.00  0.00    -0.175 NA
HETATM    3  N   UNL     1       3.861   6.026  16.906  0.00  0.00    -0.277 N 
HETATM    4  H   UNL     1       4.539   5.974  16.154  0.00  0.00     0.189 HD
HETATM    5  C   UNL     1       2.853   6.316  18.827  0.00  0.00     0.022 A 
HETATM    6  C   UNL     1       4.085   6.406  18.202  0.00  0.00     0.065 A 
HETATM    7  C   UNL     1       2.770   6.631  20.200  0.00  0.00     0.035 A 
HETATM    8  C   UNL     1       3.905   7.091  20.904  0.00  0.00     0.066 A 
HETATM    9  C   UNL     1       5.098   7.268  20.189  0.00  0.00     0.083 A 
HETATM   10  C   UNL     1       5.235   6.859  18.853  0.00  0.00     0.069 A 
ENDROOT
BRANCH   8  11
HETATM   11  C   UNL     1       3.649   7.479  22.326  0.00  0.00     0.260 C 
HETATM   12  O   UNL     1       3.740   8.693  22.535  0.00  0.00    -0.267 OA
HETATM   13  N   UNL     1       3.333   6.552  23.344  0.00  0.00    -0.318 N 
HETATM   14  C   UNL     1       3.370   5.096  23.198  0.00  0.00     0.159 C 
BRANCH  13  15
HETATM   15  C   UNL     1       2.966   7.041  24.655  0.00  0.00     0.037 A 
HETATM   16  C   UNL     1       1.763   7.722  24.871  0.00  0.00     0.032 A 
HETATM   17  C   UNL     1       1.409   8.208  26.142  0.00  0.00     0.031 A 
HETATM   18  C   UNL     1       2.246   8.044  27.252  0.00  0.00     0.030 A 
HETATM   19  C   UNL     1       3.431   7.331  27.030  0.00  0.00     0.031 A 
HETATM   20  C   UNL     1       3.783   6.825  25.767  0.00  0.00     0.032 A 
BRANCH  18  21
HETATM   21  N   UNL     1       1.917   8.495  28.512  0.00  0.00    -0.377 N 
HETATM   22  C   UNL     1       0.602   9.059  28.847  0.00  0.00     0.149 C 
HETATM   23  C   UNL     1       0.239   8.623  30.280  0.00  0.00     0.187 C 
HETATM   24  O   UNL     1       1.248   9.001  31.234  0.00  0.00    -0.388 OA
HETATM   25  C   UNL     1       2.520   8.429  30.876  0.00  0.00     0.187 C 
HETATM   26  C   UNL     1       2.961   8.884  29.476  0.00  0.00     0.149 C 
ENDBRANCH  18  21
ENDBRANCH  13  15
ENDBRANCH   8  11
BRANCH   9  27
HETATM   27  O   UNL     1       6.187   7.931  20.686  0.00  0.00    -0.360 OA
HETATM   28  H   UNL     1       5.853   8.601  21.311  0.00  0.00     0.217 HD
ENDBRANCH   9  27
BRANCH   1  29
HETATM   29  C   UNL     1       0.455   5.719  17.881  0.00  0.00     0.172 C 
BRANCH  29  30
HETATM   30  C   UNL     1      -0.008   5.212  19.253  0.00  0.00     0.034 C 
HETATM   31  C   UNL     1       0.267   3.731  19.487  0.00  0.00     0.008 C 
ENDBRANCH  29  30
BRANCH  29  32
HETATM   32  O   UNL     1      -0.274   6.903  17.539  0.00  0.00    -0.389 OA
HETATM   33  H   UNL     1      -0.604   7.282  18.370  0.00  0.00     0.210 HD
ENDBRANCH  29  32
ENDBRANCH   1  29
TORSDOF 7
ENDMDL
MODEL 2
REMARK VINA RESULT:    -6.801      1.672      2.115
REMARK INTER + INTRA:          -9.947
REMARK INTER:                  -9.146
REMARK INTRA:                  -0.800
REMARK UNBOUND:                -0.761
REMARK  7 active torsions:
REMARK  status: ('A' for Active; 'I' for Inactive)
REMARK    1  A    between atoms: C_2  and  C_3 
REMARK    2  A    between atoms: C_3  and  O_4 
REMARK    3  A    between atoms: C_3  and  C_5 
REMARK    4  A    between atoms: C_12  and  C_16 
REMARK    5  A    between atoms: C_13  and  O_15 
REMARK       I    between atoms: C_16  and  N_18 
REMARK    6  A    between atoms: N_18  and  C_20 
REMARK    7  A    between atoms: C_23  and  N_26 
ROOT
HETATM    1  C   UNL     1       2.922   6.687  18.370  0.00  0.00     0.095 A 
HETATM    2  N   UNL     1       3.766   6.500  17.336  0.00  0.00    -0.175 NA
HETATM    3  N   UNL     1       4.926   6.162  17.929  0.00  0.00    -0.277 N 
HETATM    4  H   UNL     1       5.735   5.994  17.340  0.00  0.00     0.189 HD
HETATM    5  C   UNL     1       3.557   6.420  19.618  0.00  0.00     0.022 A 
HETATM    6  C   UNL     1       4.869   6.113  19.296  0.00  0.00     0.065 A 
HETATM    7  C   UNL     1       3.182   6.426  20.978  0.00  0.00     0.035 A 
HETATM    8  C   UNL     1       4.139   6.191  21.991  0.00  0.00     0.066 A 
HETATM    9  C   UNL     1       5.472   5.997  21.607  0.00  0.00     0.083 A 
HETATM   10  C   UNL     1       5.851   5.876  20.260  0.00  0.00     0.069 A 
ENDROOT
BRANCH   8  11
HETATM   11  C   UNL     1       3.620   6.325  23.388  0.00  0.00     0.260 C 
HETATM   12  O   UNL     1       3.167   5.275  23.853  0.00  0.00    -0.267 OA
HETATM   13  N   UNL     1       3.641   7.535  24.117  0.00  0.00    -0.318 N 
HETATM   14  C   UNL     1       4.011   8.841  23.569  0.00  0.00     0.159 C 
BRANCH  13  15
HETATM   15  C   UNL     1       3.244   7.528  25.508  0.00  0.00     0.037 A 
HETATM   16  C   UNL     1       2.014   8.050  25.920  0.00  0.00     0.032 A 
HETATM   17  C   UNL     1       1.631   8.054  27.273  0.00  0.00     0.031 A 
HETATM   18  C   UNL     1       2.465   7.546  28.276  0.00  0.00     0.030 A 
HETATM   19  C   UNL     1       3.680   6.995  27.846  0.00  0.00     0.031 A 
HETATM   20  C   UNL     1       4.061   6.970  26.494  0.00  0.00     0.032 A 
BRANCH  18  21
HETATM   21  N   UNL     1       2.109   7.522  29.607  0.00  0.00    -0.377 N 
HETATM   22  C   UNL     1       2.033   6.285  30.397  0.00  0.00     0.149 C 
HETATM   23  C   UNL     1       2.511   6.595  31.829  0.00  0.00     0.187 C 
HETATM   24  O   UNL     1       1.764   7.668  32.430  0.00  0.00    -0.388 OA
HETATM   25  C   UNL     1       1.864   8.862  31.632  0.00  0.00     0.187 C 
HETATM   26  C   UNL     1       1.339   8.625  30.207  0.00  0.00     0.149 C 
ENDBRANCH  18  21
ENDBRANCH  13  15
ENDBRANCH   8  11
BRANCH   9  27
HETATM   27  O   UNL     1       6.522   6.004  22.485  0.00  0.00    -0.360 OA
HETATM   28  H   UNL     1       6.143   5.980  23.383  0.00  0.00     0.217 HD
ENDBRANCH   9  27
BRANCH   1  29
HETATM   29  C   UNL     1       1.508   7.127  18.101  0.00  0.00     0.172 C 
BRANCH  29  30
HETATM   30  C   UNL     1       1.173   7.183  16.605  0.00  0.00     0.034 C 
HETATM   31  C   UNL     1       0.191   6.108  16.153  0.00  0.00     0.008 C 
ENDBRANCH  29  30
BRANCH  29  32
HETATM   32  O   UNL     1       0.545   6.309  18.776  0.00  0.00    -0.389 OA
HETATM   33  H   UNL     1       0.900   6.128  19.662  0.00  0.00     0.210 HD
ENDBRANCH  29  32
ENDBRANCH   1  29
TORSDOF 7
ENDMDL
MODEL 3
REMARK VINA RESULT:    -6.720      4.348      5.000
REMARK INTER + INTRA:          -9.838
REMARK INTER:                  -8.775
REMARK INTRA:                  -1.063
REMARK UNBOUND:                -0.761
REMARK  7 active torsions:
REMARK  status: ('A' for Active; 'I' for Inactive)
REMARK    1  A    between atoms: C_2  and  C_3 
REMARK    2  A    between atoms: C_3  and  O_4 
REMARK    3  A    between atoms: C_3  and  C_5 
REMARK    4  A    between atoms: C_12  and  C_16 
REMARK    5  A    between atoms: C_13  and  O_15 
REMARK       I    between atoms: C_16  and  N_18 
REMARK    6  A    between atoms: N_18  and  C_20 
REMARK    7  A    between atoms: C_23  and  N_26 
ROOT
HETATM    1  C   UNL     1       0.384   5.592  17.211  0.00  0.00     0.095 A 
HETATM    2  N   UNL     1       0.161   6.456  16.200  0.00  0.00    -0.175 NA
HETATM    3  N   UNL     1       0.973   7.491  16.483  0.00  0.00    -0.277 N 
HETATM    4  H   UNL     1       0.959   8.294  15.863  0.00  0.00     0.189 HD
HETATM    5  C   UNL     1       1.378   6.082  18.108  0.00  0.00     0.022 A 
HETATM    6  C   UNL     1       1.716   7.334  17.622  0.00  0.00     0.065 A 
HETATM    7  C   UNL     1       2.010   5.622  19.282  0.00  0.00     0.035 A 
HETATM    8  C   UNL     1       2.916   6.449  19.984  0.00  0.00     0.066 A 
HETATM    9  C   UNL     1       3.131   7.747  19.504  0.00  0.00     0.083 A 
HETATM   10  C   UNL     1       2.602   8.189  18.280  0.00  0.00     0.069 A 
ENDROOT
BRANCH   8  11
HETATM   11  C   UNL     1       3.434   5.870  21.262  0.00  0.00     0.260 C 
HETATM   12  O   UNL     1       2.640   5.954  22.204  0.00  0.00    -0.267 OA
HETATM   13  N   UNL     1       4.712   5.282  21.393  0.00  0.00    -0.318 N 
HETATM   14  C   UNL     1       5.755   5.299  20.366  0.00  0.00     0.159 C 
BRANCH  13  15
HETATM   15  C   UNL     1       5.064   4.627  22.634  0.00  0.00     0.037 A 
HETATM   16  C   UNL     1       4.809   3.267  22.840  0.00  0.00     0.032 A 
HETATM   17  C   UNL     1       5.141   2.631  24.050  0.00  0.00     0.031 A 
HETATM   18  C   UNL     1       5.732   3.327  25.110  0.00  0.00     0.030 A 
HETATM   19  C   UNL     1       6.014   4.680  24.878  0.00  0.00     0.031 A 
HETATM   20  C   UNL     1       5.703   5.319  23.665  0.00  0.00     0.032 A 
BRANCH  18  21
HETATM   21  N   UNL     1       6.083   2.726  26.300  0.00  0.00    -0.377 N 
HETATM   22  C   UNL     1       6.238   1.272  26.451  0.00  0.00     0.149 C 
HETATM   23  C   UNL     1       7.400   1.008  27.428  0.00  0.00     0.187 C 
HETATM   24  O   UNL     1       7.205   1.666  28.693  0.00  0.00    -0.388 OA
HETATM   25  C   UNL     1       7.060   3.086  28.507  0.00  0.00     0.187 C 
HETATM   26  C   UNL     1       5.872   3.409  27.588  0.00  0.00     0.149 C 
ENDBRANCH  18  21
ENDBRANCH  13  15
ENDBRANCH   8  11
BRANCH   9  27
HETATM   27  O   UNL     1       3.783   8.719  20.214  0.00  0.00    -0.360 OA
HETATM   28  H   UNL     1       3.808   9.516  19.651  0.00  0.00     0.217 HD
ENDBRANCH   9  27
BRANCH   1  29
HETATM   29  C   UNL     1      -0.391   4.303  17.267  0.00  0.00     0.172 C 
BRANCH  29  30
HETATM   30  C   UNL     1       0.511   3.063  17.324  0.00  0.00     0.034 C 
HETATM   31  C   UNL     1       1.527   2.989  16.189  0.00  0.00     0.008 C 
ENDBRANCH  29  30
BRANCH  29  32
HETATM   32  O   UNL     1      -1.316   4.271  18.361  0.00  0.00    -0.389 OA
HETATM   33  H   UNL     1      -1.688   5.164  18.442  0.00  0.00     0.210 HD
ENDBRANCH  29  32
ENDBRANCH   1  29
TORSDOF 7
ENDMDL
MODEL 4
REMARK VINA RESULT:    -6.580      2.502     10.174
REMARK INTER + INTRA:          -9.649
REMARK INTER:                  -9.409
REMARK INTRA:                  -0.240
REMARK UNBOUND:                -0.761
REMARK  7 active torsions:
REMARK  status: ('A' for Active; 'I' for Inactive)
REMARK    1  A    between atoms: C_2  and  C_3 
REMARK    2  A    between atoms: C_3  and  O_4 
REMARK    3  A    between atoms: C_3  and  C_5 
REMARK    4  A    between atoms: C_12  and  C_16 
REMARK    5  A    between atoms: C_13  and  O_15 
REMARK       I    between atoms: C_16  and  N_18 
REMARK    6  A    between atoms: N_18  and  C_20 
REMARK    7  A    between atoms: C_23  and  N_26 
ROOT
HETATM    1  C   UNL     1       2.151   7.404  31.047  0.00  0.00     0.095 A 
HETATM    2  N   UNL     1       1.503   7.949  32.095  0.00  0.00    -0.175 NA
HETATM    3  N   UNL     1       0.549   8.705  31.521  0.00  0.00    -0.277 N 
HETATM    4  H   UNL     1      -0.063   9.245  32.124  0.00  0.00     0.189 HD
HETATM    5  C   UNL     1       1.563   7.795  29.808  0.00  0.00     0.022 A 
HETATM    6  C   UNL     1       0.544   8.667  30.152  0.00  0.00     0.065 A 
HETATM    7  C   UNL     1       1.791   7.532  28.441  0.00  0.00     0.035 A 
HETATM    8  C   UNL     1       1.039   8.195  27.445  0.00  0.00     0.066 A 
HETATM    9  C   UNL     1       0.098   9.149  27.854  0.00  0.00     0.083 A 
HETATM   10  C   UNL     1      -0.224   9.348  29.206  0.00  0.00     0.069 A 
ENDROOT
BRANCH   8  11
HETATM   11  C   UNL     1       1.453   7.892  26.039  0.00  0.00     0.260 C 
HETATM   12  O   UNL     1       0.554   8.057  25.209  0.00  0.00    -0.267 OA
HETATM   13  N   UNL     1       2.749   7.457  25.683  0.00  0.00    -0.318 N 
HETATM   14  C   UNL     1       3.803   7.088  26.629  0.00  0.00     0.159 C 
BRANCH  13  15
HETATM   15  C   UNL     1       3.090   7.325  24.283  0.00  0.00     0.037 A 
HETATM   16  C   UNL     1       3.669   8.380  23.570  0.00  0.00     0.032 A 
HETATM   17  C   UNL     1       3.991   8.257  22.206  0.00  0.00     0.031 A 
HETATM   18  C   UNL     1       3.739   7.080  21.493  0.00  0.00     0.030 A 
HETATM   19  C   UNL     1       3.191   6.020  22.227  0.00  0.00     0.031 A 
HETATM   20  C   UNL     1       2.884   6.128  23.594  0.00  0.00     0.032 A 
BRANCH  18  21
HETATM   21  N   UNL     1       4.059   6.927  20.160  0.00  0.00    -0.377 N 
HETATM   22  C   UNL     1       5.153   6.066  19.690  0.00  0.00     0.149 C 
HETATM   23  C   UNL     1       4.719   5.414  18.363  0.00  0.00     0.187 C 
HETATM   24  O   UNL     1       4.338   6.391  17.378  0.00  0.00    -0.388 OA
HETATM   25  C   UNL     1       3.264   7.212  17.871  0.00  0.00     0.187 C 
HETATM   26  C   UNL     1       3.666   7.939  19.164  0.00  0.00     0.149 C 
ENDBRANCH  18  21
ENDBRANCH  13  15
ENDBRANCH   8  11
BRANCH   9  27
HETATM   27  O   UNL     1      -0.512  10.027  26.998  0.00  0.00    -0.360 OA
HETATM   28  H   UNL     1       0.083  10.794  26.905  0.00  0.00     0.217 HD
ENDBRANCH   9  27
BRANCH   1  29
HETATM   29  C   UNL     1       3.337   6.512  31.292  0.00  0.00     0.172 C 
BRANCH  29  30
HETATM   30  C   UNL     1       4.578   6.930  30.492  0.00  0.00     0.034 C 
HETATM   31  C   UNL     1       5.284   5.771  29.800  0.00  0.00     0.008 C 
ENDBRANCH  29  30
BRANCH  29  32
HETATM   32  O   UNL     1       3.674   6.422  32.682  0.00  0.00    -0.389 OA
HETATM   33  H   UNL     1       4.512   5.935  32.738  0.00  0.00     0.210 HD
ENDBRANCH  29  32
ENDBRANCH   1  29
TORSDOF 7
ENDMDL
MODEL 5
REMARK VINA RESULT:    -6.558      5.694      7.722
REMARK INTER + INTRA:          -9.619
REMARK INTER:                  -8.858
REMARK INTRA:                  -0.761
REMARK UNBOUND:                -0.761
REMARK  7 active torsions:
REMARK  status: ('A' for Active; 'I' for Inactive)
REMARK    1  A    between atoms: C_2  and  C_3 
REMARK    2  A    between atoms: C_3  and  O_4 
REMARK    3  A    between atoms: C_3  and  C_5 
REMARK    4  A    between atoms: C_12  and  C_16 
REMARK    5  A    between atoms: C_13  and  O_15 
REMARK       I    between atoms: C_16  and  N_18 
REMARK    6  A    between atoms: N_18  and  C_20 
REMARK    7  A    between atoms: C_23  and  N_26 
ROOT
HETATM    1  C   UNL     1      -0.698  12.470  24.066  0.00  0.00     0.095 A 
HETATM    2  N   UNL     1       0.029  13.604  24.013  0.00  0.00    -0.175 NA
HETATM    3  N   UNL     1       1.260  13.210  24.386  0.00  0.00    -0.277 N 
HETATM    4  H   UNL     1       1.990  13.912  24.448  0.00  0.00     0.189 HD
HETATM    5  C   UNL     1       0.104  11.352  24.437  0.00  0.00     0.022 A 
HETATM    6  C   UNL     1       1.365  11.874  24.670  0.00  0.00     0.065 A 
HETATM    7  C   UNL     1      -0.096   9.968  24.626  0.00  0.00     0.035 A 
HETATM    8  C   UNL     1       0.949   9.147  25.106  0.00  0.00     0.066 A 
HETATM    9  C   UNL     1       2.170   9.755  25.429  0.00  0.00     0.083 A 
HETATM   10  C   UNL     1       2.429  11.106  25.147  0.00  0.00     0.069 A 
ENDROOT
BRANCH   8  11
HETATM   11  C   UNL     1       0.567   7.722  25.351  0.00  0.00     0.260 C 
HETATM   12  O   UNL     1       0.426   7.060  24.318  0.00  0.00    -0.267 OA
HETATM   13  N   UNL     1       0.381   7.172  26.639  0.00  0.00    -0.318 N 
HETATM   14  C   UNL     1       0.373   7.938  27.887  0.00  0.00     0.159 C 
BRANCH  13  15
HETATM   15  C   UNL     1       0.149   5.751  26.774  0.00  0.00     0.037 A 
HETATM   16  C   UNL     1       1.209   4.842  26.849  0.00  0.00     0.032 A 
HETATM   17  C   UNL     1       0.986   3.458  26.970  0.00  0.00     0.031 A 
HETATM   18  C   UNL     1      -0.306   2.922  27.009  0.00  0.00     0.030 A 
HETATM   19  C   UNL     1      -1.358   3.845  26.967  0.00  0.00     0.031 A 
HETATM   20  C   UNL     1      -1.144   5.231  26.867  0.00  0.00     0.032 A 
BRANCH  18  21
HETATM   21  N   UNL     1      -0.554   1.572  27.142  0.00  0.00    -0.377 N 
HETATM   22  C   UNL     1       0.357   0.652  27.839  0.00  0.00     0.149 C 
HETATM   23  C   UNL     1      -0.491  -0.399  28.580  0.00  0.00     0.187 C 
HETATM   24  O   UNL     1      -1.389  -1.094  27.695  0.00  0.00    -0.388 OA
HETATM   25  C   UNL     1      -2.266  -0.163  27.034  0.00  0.00     0.187 C 
HETATM   26  C   UNL     1      -1.471   0.874  26.225  0.00  0.00     0.149 C 
ENDBRANCH  18  21
ENDBRANCH  13  15
ENDBRANCH   8  11
BRANCH   9  27
HETATM   27  O   UNL     1       3.168   9.127  26.124  0.00  0.00    -0.360 OA
HETATM   28  H   UNL     1       4.000   9.293  25.642  0.00  0.00     0.217 HD
ENDBRANCH   9  27
BRANCH   1  29
HETATM   29  C   UNL     1      -2.169  12.518  23.751  0.00  0.00     0.172 C 
BRANCH  29  30
HETATM   30  C   UNL     1      -2.481  12.151  22.295  0.00  0.00     0.034 C 
HETATM   31  C   UNL     1      -1.586  12.849  21.277  0.00  0.00     0.008 C 
ENDBRANCH  29  30
BRANCH  29  32
HETATM   32  O   UNL     1      -2.942  11.691  24.629  0.00  0.00    -0.389 OA
HETATM   33  H   UNL     1      -2.809  10.773  24.341  0.00  0.00     0.210 HD
ENDBRANCH  29  32
ENDBRANCH   1  29
TORSDOF 7
ENDMDL
MODEL 6
REMARK VINA RESULT:    -6.495      2.973      9.720
REMARK INTER + INTRA:          -9.534
REMARK INTER:                  -8.573
REMARK INTRA:                  -0.961
REMARK UNBOUND:                -0.761
REMARK  7 active torsions:
REMARK  status: ('A' for Active; 'I' for Inactive)
REMARK    1  A    between atoms: C_2  and  C_3 
REMARK    2  A    between atoms: C_3  and  O_4 
REMARK    3  A    between atoms: C_3  and  C_5 
REMARK    4  A    between atoms: C_12  and  C_16 
REMARK    5  A    between atoms: C_13  and  O_15 
REMARK       I    between atoms: C_16  and  N_18 
REMARK    6  A    between atoms: N_18  and  C_20 
REMARK    7  A    between atoms: C_23  and  N_26 
ROOT
HETATM    1  C   UNL     1       2.566   6.703  26.169  0.00  0.00     0.095 A 
HETATM    2  N   UNL     1       3.500   7.156  27.029  0.00  0.00    -0.175 NA
HETATM    3  N   UNL     1       4.620   7.206  26.284  0.00  0.00    -0.277 N 
HETATM    4  H   UNL     1       5.482   7.500  26.732  0.00  0.00     0.189 HD
HETATM    5  C   UNL     1       3.107   6.510  24.864  0.00  0.00     0.022 A 
HETATM    6  C   UNL     1       4.452   6.815  24.982  0.00  0.00     0.065 A 
HETATM    7  C   UNL     1       2.620   6.090  23.608  0.00  0.00     0.035 A 
HETATM    8  C   UNL     1       3.498   5.921  22.514  0.00  0.00     0.066 A 
HETATM    9  C   UNL     1       4.866   6.139  22.727  0.00  0.00     0.083 A 
HETATM   10  C   UNL     1       5.360   6.662  23.933  0.00  0.00     0.069 A 
ENDROOT
BRANCH   8  11
HETATM   11  C   UNL     1       2.861   5.379  21.274  0.00  0.00     0.260 C 
HETATM   12  O   UNL     1       2.427   4.230  21.399  0.00  0.00    -0.267 OA
HETATM   13  N   UNL     1       2.759   6.105  20.066  0.00  0.00    -0.318 N 
HETATM   14  C   UNL     1       3.393   7.398  19.806  0.00  0.00     0.159 C 
BRANCH  13  15
HETATM   15  C   UNL     1       2.002   5.545  18.968  0.00  0.00     0.037 A 
HETATM   16  C   UNL     1       0.664   5.891  18.752  0.00  0.00     0.032 A 
HETATM   17  C   UNL     1      -0.077   5.340  17.691  0.00  0.00     0.031 A 
HETATM   18  C   UNL     1       0.482   4.411  16.806  0.00  0.00     0.030 A 
HETATM   19  C   UNL     1       1.833   4.099  17.013  0.00  0.00     0.031 A 
HETATM   20  C   UNL     1       2.586   4.660  18.058  0.00  0.00     0.032 A 
BRANCH  18  21
HETATM   21  N   UNL     1      -0.216   3.867  15.749  0.00  0.00    -0.377 N 
HETATM   22  C   UNL     1      -0.637   4.649  14.577  0.00  0.00     0.149 C 
HETATM   23  C   UNL     1      -0.525   3.749  13.331  0.00  0.00     0.187 C 
HETATM   24  O   UNL     1      -1.281   2.532  13.470  0.00  0.00    -0.388 OA
HETATM   25  C   UNL     1      -0.839   1.794  14.624  0.00  0.00     0.187 C 
HETATM   26  C   UNL     1      -0.989   2.624  15.908  0.00  0.00     0.149 C 
ENDBRANCH  18  21
ENDBRANCH  13  15
ENDBRANCH   8  11
BRANCH   9  27
HETATM   27  O   UNL     1       5.838   5.778  21.834  0.00  0.00    -0.360 OA
HETATM   28  H   UNL     1       6.682   5.761  22.322  0.00  0.00     0.217 HD
ENDBRANCH   9  27
BRANCH   1  29
HETATM   29  C   UNL     1       1.162   6.470  26.657  0.00  0.00     0.172 C 
BRANCH  29  30
HETATM   30  C   UNL     1       0.194   7.590  26.255  0.00  0.00     0.034 C 
HETATM   31  C   UNL     1      -0.602   7.293  24.990  0.00  0.00     0.008 C 
ENDBRANCH  29  30
BRANCH  29  32
HETATM   32  O   UNL     1       0.637   5.208  26.226  0.00  0.00    -0.389 OA
HETATM   33  H   UNL     1       1.388   4.594  26.174  0.00  0.00     0.210 HD
ENDBRANCH  29  32
ENDBRANCH   1  29
TORSDOF 7
ENDMDL
MODEL 7
REMARK VINA RESULT:    -6.455      3.170      5.211
REMARK INTER + INTRA:          -9.479
REMARK INTER:                  -8.426
REMARK INTRA:                  -1.053
REMARK UNBOUND:                -0.761
REMARK  7 active torsions:
REMARK  status: ('A' for Active; 'I' for Inactive)
REMARK    1  A    between atoms: C_2  and  C_3 
REMARK    2  A    between atoms: C_3  and  O_4 
REMARK    3  A    between atoms: C_3  and  C_5 
REMARK    4  A    between atoms: C_12  and  C_16 
REMARK    5  A    between atoms: C_13  and  O_15 
REMARK       I    between atoms: C_16  and  N_18 
REMARK    6  A    between atoms: N_18  and  C_20 
REMARK    7  A    between atoms: C_23  and  N_26 
ROOT
HETATM    1  C   UNL     1       0.959   2.885  14.669  0.00  0.00     0.095 A 
HETATM    2  N   UNL     1       0.595   3.234  13.418  0.00  0.00    -0.175 NA
HETATM    3  N   UNL     1       0.636   4.579  13.440  0.00  0.00    -0.277 N 
HETATM    4  H   UNL     1       0.371   5.081  12.599  0.00  0.00     0.189 HD
HETATM    5  C   UNL     1       1.269   4.028  15.462  0.00  0.00     0.022 A 
HETATM    6  C   UNL     1       1.017   5.115  14.641  0.00  0.00     0.065 A 
HETATM    7  C   UNL     1       1.708   4.268  16.781  0.00  0.00     0.035 A 
HETATM    8  C   UNL     1       1.823   5.588  17.273  0.00  0.00     0.066 A 
HETATM    9  C   UNL     1       1.447   6.642  16.430  0.00  0.00     0.083 A 
HETATM   10  C   UNL     1       1.113   6.436  15.082  0.00  0.00     0.069 A 
ENDROOT
BRANCH   8  11
HETATM   11  C   UNL     1       2.205   5.689  18.716  0.00  0.00     0.260 C 
HETATM   12  O   UNL     1       1.255   5.556  19.493  0.00  0.00    -0.267 OA
HETATM   13  N   UNL     1       3.527   5.917  19.161  0.00  0.00    -0.318 N 
HETATM   14  C   UNL     1       4.661   6.244  18.295  0.00  0.00     0.159 C 
BRANCH  13  15
HETATM   15  C   UNL     1       3.815   5.859  20.577  0.00  0.00     0.037 A 
HETATM   16  C   UNL     1       3.657   6.979  21.401  0.00  0.00     0.032 A 
HETATM   17  C   UNL     1       3.947   6.928  22.776  0.00  0.00     0.031 A 
HETATM   18  C   UNL     1       4.416   5.760  23.387  0.00  0.00     0.030 A 
HETATM   19  C   UNL     1       4.536   4.636  22.558  0.00  0.00     0.031 A 
HETATM   20  C   UNL     1       4.230   4.674  21.187  0.00  0.00     0.032 A 
BRANCH  18  21
HETATM   21  N   UNL     1       4.692   5.677  24.735  0.00  0.00    -0.377 N 
HETATM   22  C   UNL     1       4.707   6.846  25.626  0.00  0.00     0.149 C 
HETATM   23  C   UNL     1       4.148   6.417  26.996  0.00  0.00     0.187 C 
HETATM   24  O   UNL     1       4.869   5.302  27.553  0.00  0.00    -0.388 OA
HETATM   25  C   UNL     1       4.831   4.177  26.656  0.00  0.00     0.187 C 
HETATM   26  C   UNL     1       5.437   4.533  25.289  0.00  0.00     0.149 C 
ENDBRANCH  18  21
ENDBRANCH  13  15
ENDBRANCH   8  11
BRANCH   9  27
HETATM   27  O   UNL     1       1.278   7.931  16.858  0.00  0.00    -0.360 OA
HETATM   28  H   UNL     1       0.319   8.069  16.976  0.00  0.00     0.217 HD
ENDBRANCH   9  27
BRANCH   1  29
HETATM   29  C   UNL     1       0.989   1.430  15.051  0.00  0.00     0.172 C 
BRANCH  29  30
HETATM   30  C   UNL     1       2.394   0.819  14.971  0.00  0.00     0.034 C 
HETATM   31  C   UNL     1       3.155   0.847  16.292  0.00  0.00     0.008 C 
ENDBRANCH  29  30
BRANCH  29  32
HETATM   32  O   UNL     1       0.441   1.197  16.354  0.00  0.00    -0.389 OA
HETATM   33  H   UNL     1       1.106   0.696  16.854  0.00  0.00     0.210 HD
ENDBRANCH  29  32
ENDBRANCH   1  29
TORSDOF 7
ENDMDL
MODEL 8
REMARK VINA RESULT:    -6.413      2.295      3.404
REMARK INTER + INTRA:          -9.424
REMARK INTER:                  -8.434
REMARK INTRA:                  -0.990
REMARK UNBOUND:                -0.761
REMARK  7 active torsions:
REMARK  status: ('A' for Active; 'I' for Inactive)
REMARK    1  A    between atoms: C_2  and  C_3 
REMARK    2  A    between atoms: C_3  and  O_4 
REMARK    3  A    between atoms: C_3  and  C_5 
REMARK    4  A    between atoms: C_12  and  C_16 
REMARK    5  A    between atoms: C_13  and  O_15 
REMARK       I    between atoms: C_16  and  N_18 
REMARK    6  A    between atoms: N_18  and  C_20 
REMARK    7  A    between atoms: C_23  and  N_26 
ROOT
HETATM    1  C   UNL     1       3.579   6.431  20.005  0.00  0.00     0.095 A 
HETATM    2  N   UNL     1       3.964   7.168  18.944  0.00  0.00    -0.175 NA
HETATM    3  N   UNL     1       4.329   8.343  19.489  0.00  0.00    -0.277 N 
HETATM    4  H   UNL     1       4.639   9.084  18.868  0.00  0.00     0.189 HD
HETATM    5  C   UNL     1       3.748   7.146  21.227  0.00  0.00     0.022 A 
HETATM    6  C   UNL     1       4.207   8.398  20.852  0.00  0.00     0.065 A 
HETATM    7  C   UNL     1       3.543   6.888  22.599  0.00  0.00     0.035 A 
HETATM    8  C   UNL     1       3.738   7.905  23.560  0.00  0.00     0.066 A 
HETATM    9  C   UNL     1       4.096   9.181  23.107  0.00  0.00     0.083 A 
HETATM   10  C   UNL     1       4.412   9.435  21.763  0.00  0.00     0.069 A 
ENDROOT
BRANCH   8  11
HETATM   11  C   UNL     1       3.391   7.518  24.963  0.00  0.00     0.260 C 
HETATM   12  O   UNL     1       4.249   6.822  25.515  0.00  0.00    -0.267 OA
HETATM   13  N   UNL     1       2.194   7.904  25.607  0.00  0.00    -0.318 N 
HETATM   14  C   UNL     1       1.072   8.584  24.959  0.00  0.00     0.159 C 
BRANCH  13  15
HETATM   15  C   UNL     1       2.015   7.596  27.009  0.00  0.00     0.037 A 
HETATM   16  C   UNL     1       2.420   8.486  28.010  0.00  0.00     0.032 A 
HETATM   17  C   UNL     1       2.257   8.183  29.374  0.00  0.00     0.031 A 
HETATM   18  C   UNL     1       1.692   6.975  29.798  0.00  0.00     0.030 A 
HETATM   19  C   UNL     1       1.260   6.108  28.785  0.00  0.00     0.031 A 
HETATM   20  C   UNL     1       1.401   6.411  27.421  0.00  0.00     0.032 A 
BRANCH  18  21
HETATM   21  N   UNL     1       1.506   6.660  31.127  0.00  0.00    -0.377 N 
HETATM   22  C   UNL     1       2.533   6.006  31.950  0.00  0.00     0.149 C 
HETATM   23  C   UNL     1       2.450   6.584  33.376  0.00  0.00     0.187 C 
HETATM   24  O   UNL     1       1.133   6.446  33.942  0.00  0.00    -0.388 OA
HETATM   25  C   UNL     1       0.156   7.100  33.112  0.00  0.00     0.187 C 
HETATM   26  C   UNL     1       0.152   6.516  31.690  0.00  0.00     0.149 C 
ENDBRANCH  18  21
ENDBRANCH  13  15
ENDBRANCH   8  11
BRANCH   9  27
HETATM   27  O   UNL     1       4.075  10.299  23.898  0.00  0.00    -0.360 OA
HETATM   28  H   UNL     1       3.598  10.062  24.715  0.00  0.00     0.217 HD
ENDBRANCH   9  27
BRANCH   1  29
HETATM   29  C   UNL     1       3.051   5.039  19.787  0.00  0.00     0.172 C 
BRANCH  29  30
HETATM   30  C   UNL     1       1.552   4.913  20.091  0.00  0.00     0.034 C 
HETATM   31  C   UNL     1       0.656   5.602  19.068  0.00  0.00     0.008 C 
ENDBRANCH  29  30
BRANCH  29  32
HETATM   32  O   UNL     1       3.312   4.558  18.463  0.00  0.00    -0.389 OA
HETATM   33  H   UNL     1       3.758   5.276  17.985  0.00  0.00     0.210 HD
ENDBRANCH  29  32
ENDBRANCH   1  29
TORSDOF 7
ENDMDL
MODEL 9
REMARK VINA RESULT:    -6.392      3.583      9.136
REMARK INTER + INTRA:          -9.395
REMARK INTER:                  -8.533
REMARK INTRA:                  -0.861
REMARK UNBOUND:                -0.761
REMARK  7 active torsions:
REMARK  status: ('A' for Active; 'I' for Inactive)
REMARK    1  A    between atoms: C_2  and  C_3 
REMARK    2  A    between atoms: C_3  and  O_4 
REMARK    3  A    between atoms: C_3  and  C_5 
REMARK    4  A    between atoms: C_12  and  C_16 
REMARK    5  A    between atoms: C_13  and  O_15 
REMARK       I    between atoms: C_16  and  N_18 
REMARK    6  A    between atoms: N_18  and  C_20 
REMARK    7  A    between atoms: C_23  and  N_26 
ROOT
HETATM    1  C   UNL     1      -0.943  10.980  26.090  0.00  0.00     0.095 A 
HETATM    2  N   UNL     1      -1.370  11.608  27.204  0.00  0.00    -0.175 NA
HETATM    3  N   UNL     1      -0.908  10.833  28.203  0.00  0.00    -0.277 N 
HETATM    4  H   UNL     1      -1.131  11.096  29.157  0.00  0.00     0.189 HD
HETATM    5  C   UNL     1      -0.171   9.824  26.406  0.00  0.00     0.022 A 
HETATM    6  C   UNL     1      -0.196   9.739  27.788  0.00  0.00     0.065 A 
HETATM    7  C   UNL     1       0.522   8.830  25.683  0.00  0.00     0.035 A 
HETATM    8  C   UNL     1       1.120   7.737  26.352  0.00  0.00     0.066 A 
HETATM    9  C   UNL     1       0.964   7.650  27.741  0.00  0.00     0.083 A 
HETATM   10  C   UNL     1       0.377   8.679  28.493  0.00  0.00     0.069 A 
ENDROOT
BRANCH   8  11
HETATM   11  C   UNL     1       1.735   6.711  25.454  0.00  0.00     0.260 C 
HETATM   12  O   UNL     1       1.310   5.567  25.641  0.00  0.00    -0.267 OA
HETATM   13  N   UNL     1       2.714   7.010  24.479  0.00  0.00    -0.318 N 
HETATM   14  C   UNL     1       3.373   8.307  24.321  0.00  0.00     0.159 C 
BRANCH  13  15
HETATM   15  C   UNL     1       3.143   5.972  23.568  0.00  0.00     0.037 A 
HETATM   16  C   UNL     1       4.280   5.198  23.826  0.00  0.00     0.032 A 
HETATM   17  C   UNL     1       4.705   4.196  22.936  0.00  0.00     0.031 A 
HETATM   18  C   UNL     1       4.020   3.930  21.745  0.00  0.00     0.030 A 
HETATM   19  C   UNL     1       2.864   4.688  21.516  0.00  0.00     0.031 A 
HETATM   20  C   UNL     1       2.421   5.678  22.409  0.00  0.00     0.032 A 
BRANCH  18  21
HETATM   21  N   UNL     1       4.405   2.943  20.863  0.00  0.00    -0.377 N 
HETATM   22  C   UNL     1       4.608   1.542  21.261  0.00  0.00     0.149 C 
HETATM   23  C   UNL     1       4.134   0.638  20.108  0.00  0.00     0.187 C 
HETATM   24  O   UNL     1       4.795   0.948  18.867  0.00  0.00    -0.388 OA
HETATM   25  C   UNL     1       4.573   2.324  18.508  0.00  0.00     0.187 C 
HETATM   26  C   UNL     1       5.086   3.276  19.600  0.00  0.00     0.149 C 
ENDBRANCH  18  21
ENDBRANCH  13  15
ENDBRANCH   8  11
BRANCH   9  27
HETATM   27  O   UNL     1       1.276   6.533  28.469  0.00  0.00    -0.360 OA
HETATM   28  H   UNL     1       1.332   6.808  29.404  0.00  0.00     0.217 HD
ENDBRANCH   9  27
BRANCH   1  29
HETATM   29  C   UNL     1      -1.309  11.536  24.741  0.00  0.00     0.172 C 
BRANCH  29  30
HETATM   30  C   UNL     1      -0.108  12.128  23.991  0.00  0.00     0.034 C 
HETATM   31  C   UNL     1       0.219  13.563  24.389  0.00  0.00     0.008 C 
ENDBRANCH  29  30
BRANCH  29  32
HETATM   32  O   UNL     1      -1.959  10.567  23.910  0.00  0.00    -0.389 OA
HETATM   33  H   UNL     1      -2.170  11.009  23.072  0.00  0.00     0.210 HD
ENDBRANCH  29  32
ENDBRANCH   1  29
TORSDOF 7
ENDMDL
