MODEL 1
REMARK VINA RESULT:    -8.797      0.000      0.000
REMARK INTER + INTRA:         -12.775
REMARK INTER:                 -11.732
REMARK INTRA:                  -1.043
REMARK UNBOUND:                -1.150
REMARK  6 active torsions:
REMARK  status: ('A' for Active; 'I' for Inactive)
REMARK    1  A    between atoms: C_3  and  N_4 
REMARK    2  A    between atoms: C_9  and  N_10 
REMARK       I    between atoms: N_10  and  C_12 
REMARK    3  A    between atoms: C_12  and  C_14 
REMARK    4  A    between atoms: C_16  and  O_17 
REMARK    5  A    between atoms: C_24  and  C_25 
REMARK    6  A    between atoms: C_25  and  C_26 
ROOT
HETATM    1  C   UNL     1       9.148  14.854  21.630  0.00  0.00     0.066 C 
HETATM    2  C   UNL     1       9.411  13.517  21.244  0.00  0.00     0.035 C 
HETATM    3  C   UNL     1      10.133  15.818  21.329  0.00  0.00     0.083 C 
HETATM    4  C   UNL     1      11.374  15.474  20.767  0.00  0.00     0.069 C 
HETATM    5  C   UNL     1      11.636  14.115  20.583  0.00  0.00     0.065 A 
HETATM    6  C   UNL     1      10.702  13.122  20.847  0.00  0.00     0.020 A 
HETATM    7  N   UNL     1      12.746  13.452  20.139  0.00  0.00    -0.277 N 
HETATM    8  H   UNL     1      13.607  13.860  19.799  0.00  0.00     0.189 HD
HETATM    9  N   UNL     1      12.653  12.114  20.205  0.00  0.00    -0.178 NA
HETATM   10  C   UNL     1      11.412  11.881  20.668  0.00  0.00     0.071 A 
ENDROOT
BRANCH   1  11
HETATM   11  C   UNL     1       7.890  15.290  22.358  0.00  0.00     0.260 C 
HETATM   12  N   UNL     1       7.625  14.895  23.702  0.00  0.00    -0.318 N 
HETATM   13  C   UNL     1       8.567  14.032  24.425  0.00  0.00     0.159 C 
HETATM   14  O   UNL     1       7.191  16.085  21.717  0.00  0.00    -0.267 OA
BRANCH  12  15
HETATM   15  C   UNL     1       6.373  15.196  24.391  0.00  0.00     0.037 A 
HETATM   16  C   UNL     1       6.255  15.034  25.778  0.00  0.00     0.032 A 
HETATM   17  C   UNL     1       5.032  15.139  26.459  0.00  0.00     0.031 A 
HETATM   18  C   UNL     1       3.838  15.430  25.803  0.00  0.00     0.029 A 
HETATM   19  C   UNL     1       3.969  15.715  24.443  0.00  0.00     0.031 A 
HETATM   20  C   UNL     1       5.203  15.606  23.748  0.00  0.00     0.032 A 
BRANCH  18  21
HETATM   21  N   UNL     1       2.628  15.415  26.477  0.00  0.00    -0.390 N 
HETATM   22  C   UNL     1       2.341  16.308  27.592  0.00  0.00     0.149 C 
HETATM   23  C   UNL     1       1.570  14.459  26.157  0.00  0.00     0.149 C 
ENDBRANCH  18  21
ENDBRANCH  12  15
ENDBRANCH   1  11
BRANCH   3  24
HETATM   24  O   UNL     1       9.964  17.164  21.555  0.00  0.00    -0.360 OA
HETATM   25  H   UNL     1      10.239  17.642  20.739  0.00  0.00     0.217 HD
ENDBRANCH   3  24
BRANCH  10  26
HETATM   26  C   UNL     1      10.996  10.450  20.934  0.00  0.00     0.100 C 
BRANCH  26  27
HETATM   27  C   UNL     1      10.300  10.293  22.287  0.00  0.00    -0.052 A 
HETATM   28  C   UNL     1      10.961  10.450  23.513  0.00  0.00     0.007 A 
HETATM   29  C   UNL     1      10.279  10.324  24.725  0.00  0.00     0.001 A 
HETATM   30  C   UNL     1       8.944   9.940  24.748  0.00  0.00     0.007 A 
HETATM   31  C   UNL     1       8.284   9.630  23.555  0.00  0.00    -0.061 A 
HETATM   32  C   UNL     1       8.951   9.852  22.332  0.00  0.00     0.014 A 
HETATM   33  C   UNL     1       6.892   9.064  23.623  0.00  0.00     0.048 C 
ENDBRANCH  26  27
ENDBRANCH  10  26
TORSDOF 6
ENDMDL
MODEL 2
REMARK VINA RESULT:    -8.717      3.213      5.282
REMARK INTER + INTRA:         -12.670
REMARK INTER:                 -11.512
REMARK INTRA:                  -1.158
REMARK UNBOUND:                -1.150
REMARK  6 active torsions:
REMARK  status: ('A' for Active; 'I' for Inactive)
REMARK    1  A    between atoms: C_3  and  N_4 
REMARK    2  A    between atoms: C_9  and  N_10 
REMARK       I    between atoms: N_10  and  C_12 
REMARK    3  A    between atoms: C_12  and  C_14 
REMARK    4  A    between atoms: C_16  and  O_17 
REMARK    5  A    between atoms: C_24  and  C_25 
REMARK    6  A    between atoms: C_25  and  C_26 
ROOT
HETATM    1  C   UNL     1       6.415  14.257  24.965  0.00  0.00     0.066 C 
HETATM    2  C   UNL     1       7.176  15.019  24.046  0.00  0.00     0.035 C 
HETATM    3  C   UNL     1       7.047  13.874  26.167  0.00  0.00     0.083 C 
HETATM    4  C   UNL     1       8.404  14.137  26.417  0.00  0.00     0.069 C 
HETATM    5  C   UNL     1       9.140  14.731  25.390  0.00  0.00     0.065 A 
HETATM    6  C   UNL     1       8.570  15.141  24.191  0.00  0.00     0.020 A 
HETATM    7  N   UNL     1      10.465  15.046  25.281  0.00  0.00    -0.277 N 
HETATM    8  H   UNL     1      11.179  14.943  25.991  0.00  0.00     0.189 HD
HETATM    9  N   UNL     1      10.824  15.515  24.075  0.00  0.00    -0.178 NA
HETATM   10  C   UNL     1       9.679  15.556  23.371  0.00  0.00     0.071 A 
ENDROOT
BRANCH   1  11
HETATM   11  C   UNL     1       4.983  13.818  24.716  0.00  0.00     0.260 C 
HETATM   12  N   UNL     1       3.895  14.738  24.772  0.00  0.00    -0.318 N 
HETATM   13  C   UNL     1       4.130  16.152  25.088  0.00  0.00     0.159 C 
HETATM   14  O   UNL     1       4.875  12.635  24.369  0.00  0.00    -0.267 OA
BRANCH  12  15
HETATM   15  C   UNL     1       2.498  14.331  24.656  0.00  0.00     0.037 A 
HETATM   16  C   UNL     1       1.703  14.148  25.796  0.00  0.00     0.032 A 
HETATM   17  C   UNL     1       0.416  13.591  25.749  0.00  0.00     0.031 A 
HETATM   18  C   UNL     1      -0.178  13.189  24.555  0.00  0.00     0.029 A 
HETATM   19  C   UNL     1       0.557  13.483  23.406  0.00  0.00     0.031 A 
HETATM   20  C   UNL     1       1.862  14.043  23.447  0.00  0.00     0.032 A 
BRANCH  18  21
HETATM   21  N   UNL     1      -1.400  12.537  24.546  0.00  0.00    -0.390 N 
HETATM   22  C   UNL     1      -1.882  11.759  25.680  0.00  0.00     0.149 C 
HETATM   23  C   UNL     1      -2.271  12.531  23.372  0.00  0.00     0.149 C 
ENDBRANCH  18  21
ENDBRANCH  12  15
ENDBRANCH   1  11
BRANCH   3  24
HETATM   24  O   UNL     1       6.396  13.221  27.187  0.00  0.00    -0.360 OA
HETATM   25  H   UNL     1       6.596  13.699  28.025  0.00  0.00     0.217 HD
ENDBRANCH   3  24
BRANCH  10  26
HETATM   26  C   UNL     1       9.738  15.977  21.918  0.00  0.00     0.100 C 
BRANCH  26  27
HETATM   27  C   UNL     1       9.714  14.779  20.968  0.00  0.00    -0.052 A 
HETATM   28  C   UNL     1       8.581  14.405  20.233  0.00  0.00     0.007 A 
HETATM   29  C   UNL     1       8.613  13.318  19.356  0.00  0.00     0.001 A 
HETATM   30  C   UNL     1       9.744  12.516  19.266  0.00  0.00     0.007 A 
HETATM   31  C   UNL     1      10.846  12.764  20.090  0.00  0.00    -0.061 A 
HETATM   32  C   UNL     1      10.841  13.918  20.901  0.00  0.00     0.014 A 
HETATM   33  C   UNL     1      11.988  11.785  20.085  0.00  0.00     0.048 C 
ENDBRANCH  26  27
ENDBRANCH  10  26
TORSDOF 6
ENDMDL
MODEL 3
REMARK VINA RESULT:    -8.418      4.574      8.117
REMARK INTER + INTRA:         -12.275
REMARK INTER:                 -11.526
REMARK INTRA:                  -0.749
REMARK UNBOUND:                -1.150
REMARK  6 active torsions:
REMARK  status: ('A' for Active; 'I' for Inactive)
REMARK    1  A    between atoms: C_3  and  N_4 
REMARK    2  A    between atoms: C_9  and  N_10 
REMARK       I    between atoms: N_10  and  C_12 
REMARK    3  A    between atoms: C_12  and  C_14 
REMARK    4  A    between atoms: C_16  and  O_17 
REMARK    5  A    between atoms: C_24  and  C_25 
REMARK    6  A    between atoms: C_25  and  C_26 
ROOT
HETATM    1  C   UNL     1       6.987  11.300  21.454  0.00  0.00     0.066 C 
HETATM    2  C   UNL     1       6.466  12.489  22.018  0.00  0.00     0.035 C 
HETATM    3  C   UNL     1       8.354  11.027  21.668  0.00  0.00     0.083 C 
HETATM    4  C   UNL     1       9.207  11.934  22.319  0.00  0.00     0.069 C 
HETATM    5  C   UNL     1       8.666  13.167  22.687  0.00  0.00     0.065 A 
HETATM    6  C   UNL     1       7.325  13.487  22.515  0.00  0.00     0.020 A 
HETATM    7  N   UNL     1       9.227  14.276  23.257  0.00  0.00    -0.277 N 
HETATM    8  H   UNL     1      10.181  14.384  23.576  0.00  0.00     0.189 HD
HETATM    9  N   UNL     1       8.395  15.325  23.359  0.00  0.00    -0.178 NA
HETATM   10  C   UNL     1       7.220  14.877  22.880  0.00  0.00     0.071 A 
ENDROOT
BRANCH   1  11
HETATM   11  C   UNL     1       6.165  10.329  20.625  0.00  0.00     0.260 C 
HETATM   12  N   UNL     1       5.298   9.372  21.230  0.00  0.00    -0.318 N 
HETATM   13  C   UNL     1       5.183   9.288  22.690  0.00  0.00     0.159 C 
HETATM   14  O   UNL     1       6.247  10.519  19.405  0.00  0.00    -0.267 OA
BRANCH  12  15
HETATM   15  C   UNL     1       4.587   8.346  20.471  0.00  0.00     0.037 A 
HETATM   16  C   UNL     1       3.632   7.525  21.086  0.00  0.00     0.032 A 
HETATM   17  C   UNL     1       3.053   6.417  20.449  0.00  0.00     0.031 A 
HETATM   18  C   UNL     1       3.375   6.058  19.142  0.00  0.00     0.029 A 
HETATM   19  C   UNL     1       4.229   6.943  18.483  0.00  0.00     0.031 A 
HETATM   20  C   UNL     1       4.822   8.064  19.124  0.00  0.00     0.032 A 
BRANCH  18  21
HETATM   21  N   UNL     1       2.878   4.895  18.575  0.00  0.00    -0.390 N 
HETATM   22  C   UNL     1       3.531   3.603  18.737  0.00  0.00     0.149 C 
HETATM   23  C   UNL     1       1.693   4.891  17.720  0.00  0.00     0.149 C 
ENDBRANCH  18  21
ENDBRANCH  12  15
ENDBRANCH   1  11
BRANCH   3  24
HETATM   24  O   UNL     1       8.964   9.862  21.264  0.00  0.00    -0.360 OA
HETATM   25  H   UNL     1       9.749  10.107  20.721  0.00  0.00     0.217 HD
ENDBRANCH   3  24
BRANCH  10  26
HETATM   26  C   UNL     1       6.061  15.846  22.783  0.00  0.00     0.100 C 
BRANCH  26  27
HETATM   27  C   UNL     1       4.990  15.572  23.840  0.00  0.00    -0.052 A 
HETATM   28  C   UNL     1       5.257  15.554  25.216  0.00  0.00     0.007 A 
HETATM   29  C   UNL     1       4.242  15.326  26.148  0.00  0.00     0.001 A 
HETATM   30  C   UNL     1       2.956  15.009  25.728  0.00  0.00     0.007 A 
HETATM   31  C   UNL     1       2.679  14.871  24.365  0.00  0.00    -0.061 A 
HETATM   32  C   UNL     1       3.684  15.196  23.430  0.00  0.00     0.014 A 
HETATM   33  C   UNL     1       1.322  14.371  23.949  0.00  0.00     0.048 C 
ENDBRANCH  26  27
ENDBRANCH  10  26
TORSDOF 6
ENDMDL
MODEL 4
REMARK VINA RESULT:    -8.414      4.098      7.348
REMARK INTER + INTRA:         -12.270
REMARK INTER:                 -11.005
REMARK INTRA:                  -1.265
REMARK UNBOUND:                -1.150
REMARK  6 active torsions:
REMARK  status: ('A' for Active; 'I' for Inactive)
REMARK    1  A    between atoms: C_3  and  N_4 
REMARK    2  A    between atoms: C_9  and  N_10 
REMARK       I    between atoms: N_10  and  C_12 
REMARK    3  A    between atoms: C_12  and  C_14 
REMARK    4  A    between atoms: C_16  and  O_17 
REMARK    5  A    between atoms: C_24  and  C_25 
REMARK    6  A    between atoms: C_25  and  C_26 
ROOT
HETATM    1  C   UNL     1       8.445  10.559  22.762  0.00  0.00     0.066 C 
HETATM    2  C   UNL     1       8.292  11.376  23.907  0.00  0.00     0.035 C 
HETATM    3  C   UNL     1       9.600  10.755  21.977  0.00  0.00     0.083 C 
HETATM    4  C   UNL     1      10.521  11.782  22.242  0.00  0.00     0.069 C 
HETATM    5  C   UNL     1      10.213  12.665  23.278  0.00  0.00     0.065 A 
HETATM    6  C   UNL     1       9.098  12.515  24.093  0.00  0.00     0.020 A 
HETATM    7  N   UNL     1      10.841  13.789  23.737  0.00  0.00    -0.277 N 
HETATM    8  H   UNL     1      11.722  14.172  23.417  0.00  0.00     0.189 HD
HETATM    9  N   UNL     1      10.170  14.444  24.698  0.00  0.00    -0.178 NA
HETATM   10  C   UNL     1       9.073  13.696  24.917  0.00  0.00     0.071 A 
ENDROOT
BRANCH   1  11
HETATM   11  C   UNL     1       7.432   9.513  22.330  0.00  0.00     0.260 C 
HETATM   12  N   UNL     1       6.257   9.862  21.600  0.00  0.00    -0.318 N 
HETATM   13  C   UNL     1       5.984  11.261  21.252  0.00  0.00     0.159 C 
HETATM   14  O   UNL     1       7.774   8.351  22.582  0.00  0.00    -0.267 OA
BRANCH  12  15
HETATM   15  C   UNL     1       5.206   8.902  21.274  0.00  0.00     0.037 A 
HETATM   16  C   UNL     1       4.336   8.421  22.262  0.00  0.00     0.032 A 
HETATM   17  C   UNL     1       3.430   7.373  22.039  0.00  0.00     0.031 A 
HETATM   18  C   UNL     1       3.315   6.740  20.803  0.00  0.00     0.029 A 
HETATM   19  C   UNL     1       4.088   7.297  19.783  0.00  0.00     0.031 A 
HETATM   20  C   UNL     1       5.010   8.355  20.005  0.00  0.00     0.032 A 
BRANCH  18  21
HETATM   21  N   UNL     1       2.497   5.634  20.638  0.00  0.00    -0.390 N 
HETATM   22  C   UNL     1       2.955   4.275  20.894  0.00  0.00     0.149 C 
HETATM   23  C   UNL     1       1.129   5.746  20.134  0.00  0.00     0.149 C 
ENDBRANCH  18  21
ENDBRANCH  12  15
ENDBRANCH   1  11
BRANCH   3  24
HETATM   24  O   UNL     1       9.923   9.965  20.899  0.00  0.00    -0.360 OA
HETATM   25  H   UNL     1      10.835   9.620  21.042  0.00  0.00     0.217 HD
ENDBRANCH   3  24
BRANCH  10  26
HETATM   26  C   UNL     1       8.044  14.195  25.909  0.00  0.00     0.100 C 
BRANCH  26  27
HETATM   27  C   UNL     1       6.804  14.766  25.217  0.00  0.00    -0.052 A 
HETATM   28  C   UNL     1       6.774  15.108  23.858  0.00  0.00     0.007 A 
HETATM   29  C   UNL     1       5.611  15.601  23.262  0.00  0.00     0.001 A 
HETATM   30  C   UNL     1       4.480  15.859  24.026  0.00  0.00     0.007 A 
HETATM   31  C   UNL     1       4.513  15.671  25.411  0.00  0.00    -0.061 A 
HETATM   32  C   UNL     1       5.658  15.085  25.990  0.00  0.00     0.014 A 
HETATM   33  C   UNL     1       3.330  16.111  26.230  0.00  0.00     0.048 C 
ENDBRANCH  26  27
ENDBRANCH  10  26
TORSDOF 6
ENDMDL
MODEL 5
REMARK VINA RESULT:    -8.394      2.784      4.308
REMARK INTER + INTRA:         -12.243
REMARK INTER:                 -11.301
REMARK INTRA:                  -0.942
REMARK UNBOUND:                -1.150
REMARK  6 active torsions:
REMARK  status: ('A' for Active; 'I' for Inactive)
REMARK    1  A    between atoms: C_3  and  N_4 
REMARK    2  A    between atoms: C_9  and  N_10 
REMARK       I    between atoms: N_10  and  C_12 
REMARK    3  A    between atoms: C_12  and  C_14 
REMARK    4  A    between atoms: C_16  and  O_17 
REMARK    5  A    between atoms: C_24  and  C_25 
REMARK    6  A    between atoms: C_25  and  C_26 
ROOT
HETATM    1  C   UNL     1       8.189  14.944  24.822  0.00  0.00     0.066 C 
HETATM    2  C   UNL     1       9.011  15.316  23.732  0.00  0.00     0.035 C 
HETATM    3  C   UNL     1       8.822  14.722  26.063  0.00  0.00     0.083 C 
HETATM    4  C   UNL     1      10.219  14.760  26.210  0.00  0.00     0.069 C 
HETATM    5  C   UNL     1      10.978  14.952  25.054  0.00  0.00     0.065 A 
HETATM    6  C   UNL     1      10.411  15.189  23.808  0.00  0.00     0.020 A 
HETATM    7  N   UNL     1      12.328  14.966  24.840  0.00  0.00    -0.277 N 
HETATM    8  H   UNL     1      13.058  14.884  25.535  0.00  0.00     0.189 HD
HETATM    9  N   UNL     1      12.681  15.073  23.550  0.00  0.00    -0.178 NA
HETATM   10  C   UNL     1      11.517  15.181  22.885  0.00  0.00     0.071 A 
ENDROOT
BRANCH   1  11
HETATM   11  C   UNL     1       6.687  14.753  24.720  0.00  0.00     0.260 C 
HETATM   12  N   UNL     1       6.106  13.867  23.766  0.00  0.00    -0.318 N 
HETATM   13  C   UNL     1       6.953  13.113  22.835  0.00  0.00     0.159 C 
HETATM   14  O   UNL     1       6.045  15.352  25.592  0.00  0.00    -0.267 OA
BRANCH  12  15
HETATM   15  C   UNL     1       4.664  13.750  23.559  0.00  0.00     0.037 A 
HETATM   16  C   UNL     1       3.802  14.809  23.870  0.00  0.00     0.032 A 
HETATM   17  C   UNL     1       2.404  14.687  23.857  0.00  0.00     0.031 A 
HETATM   18  C   UNL     1       1.765  13.497  23.514  0.00  0.00     0.029 A 
HETATM   19  C   UNL     1       2.614  12.477  23.083  0.00  0.00     0.031 A 
HETATM   20  C   UNL     1       4.030  12.594  23.099  0.00  0.00     0.032 A 
BRANCH  18  21
HETATM   21  N   UNL     1       0.389  13.367  23.619  0.00  0.00    -0.390 N 
HETATM   22  C   UNL     1      -0.332  13.644  24.854  0.00  0.00     0.149 C 
HETATM   23  C   UNL     1      -0.433  12.881  22.513  0.00  0.00     0.149 C 
ENDBRANCH  18  21
ENDBRANCH  12  15
ENDBRANCH   1  11
BRANCH   3  24
HETATM   24  O   UNL     1       8.135  14.455  27.224  0.00  0.00    -0.360 OA
HETATM   25  H   UNL     1       7.336  13.931  26.985  0.00  0.00     0.217 HD
ENDBRANCH   3  24
BRANCH  10  26
HETATM   26  C   UNL     1      11.550  15.248  21.373  0.00  0.00     0.100 C 
BRANCH  26  27
HETATM   27  C   UNL     1      10.594  14.242  20.730  0.00  0.00    -0.052 A 
HETATM   28  C   UNL     1       9.416  14.618  20.069  0.00  0.00     0.007 A 
HETATM   29  C   UNL     1       8.586  13.666  19.472  0.00  0.00     0.001 A 
HETATM   30  C   UNL     1       8.855  12.311  19.607  0.00  0.00     0.007 A 
HETATM   31  C   UNL     1       9.937  11.885  20.382  0.00  0.00    -0.061 A 
HETATM   32  C   UNL     1      10.824  12.852  20.900  0.00  0.00     0.014 A 
HETATM   33  C   UNL     1      10.108  10.413  20.642  0.00  0.00     0.048 C 
ENDBRANCH  26  27
ENDBRANCH  10  26
TORSDOF 6
ENDMDL
MODEL 6
REMARK VINA RESULT:    -8.190      3.601      5.829
REMARK INTER + INTRA:         -11.973
REMARK INTER:                 -10.774
REMARK INTRA:                  -1.200
REMARK UNBOUND:                -1.150
REMARK  6 active torsions:
REMARK  status: ('A' for Active; 'I' for Inactive)
REMARK    1  A    between atoms: C_3  and  N_4 
REMARK    2  A    between atoms: C_9  and  N_10 
REMARK       I    between atoms: N_10  and  C_12 
REMARK    3  A    between atoms: C_12  and  C_14 
REMARK    4  A    between atoms: C_16  and  O_17 
REMARK    5  A    between atoms: C_24  and  C_25 
REMARK    6  A    between atoms: C_25  and  C_26 
ROOT
HETATM    1  C   UNL     1       3.888  13.416  23.842  0.00  0.00     0.066 C 
HETATM    2  C   UNL     1       4.773  12.823  22.910  0.00  0.00     0.035 C 
HETATM    3  C   UNL     1       4.024  14.801  24.073  0.00  0.00     0.083 C 
HETATM    4  C   UNL     1       5.055  15.559  23.493  0.00  0.00     0.069 C 
HETATM    5  C   UNL     1       6.001  14.873  22.730  0.00  0.00     0.065 A 
HETATM    6  C   UNL     1       5.912  13.514  22.457  0.00  0.00     0.020 A 
HETATM    7  N   UNL     1       7.143  15.288  22.104  0.00  0.00    -0.277 N 
HETATM    8  H   UNL     1       7.497  16.234  22.039  0.00  0.00     0.189 HD
HETATM    9  N   UNL     1       7.861  14.298  21.550  0.00  0.00    -0.178 NA
HETATM   10  C   UNL     1       7.140  13.185  21.780  0.00  0.00     0.071 A 
ENDROOT
BRANCH   1  11
HETATM   11  C   UNL     1       2.830  12.644  24.610  0.00  0.00     0.260 C 
HETATM   12  N   UNL     1       1.476  12.582  24.166  0.00  0.00    -0.318 N 
HETATM   13  C   UNL     1       1.058  13.281  22.946  0.00  0.00     0.159 C 
HETATM   14  O   UNL     1       3.274  12.010  25.575  0.00  0.00    -0.267 OA
BRANCH  12  15
HETATM   15  C   UNL     1       0.410  11.951  24.941  0.00  0.00     0.037 A 
HETATM   16  C   UNL     1      -0.438  12.713  25.756  0.00  0.00     0.032 A 
HETATM   17  C   UNL     1      -1.356  12.142  26.650  0.00  0.00     0.031 A 
HETATM   18  C   UNL     1      -1.506  10.763  26.782  0.00  0.00     0.029 A 
HETATM   19  C   UNL     1      -0.754  10.002  25.886  0.00  0.00     0.031 A 
HETATM   20  C   UNL     1       0.180  10.575  24.982  0.00  0.00     0.032 A 
BRANCH  18  21
HETATM   21  N   UNL     1      -2.335  10.222  27.752  0.00  0.00    -0.390 N 
HETATM   22  C   UNL     1      -3.713  10.657  27.936  0.00  0.00     0.149 C 
HETATM   23  C   UNL     1      -1.868   9.215  28.702  0.00  0.00     0.149 C 
ENDBRANCH  18  21
ENDBRANCH  12  15
ENDBRANCH   1  11
BRANCH   3  24
HETATM   24  O   UNL     1       3.169  15.520  24.873  0.00  0.00    -0.360 OA
HETATM   25  H   UNL     1       3.071  16.418  24.478  0.00  0.00     0.217 HD
ENDBRANCH   3  24
BRANCH  10  26
HETATM   26  C   UNL     1       7.708  11.852  21.342  0.00  0.00     0.100 C 
BRANCH  26  27
HETATM   27  C   UNL     1       8.198  11.017  22.526  0.00  0.00    -0.052 A 
HETATM   28  C   UNL     1       9.416  11.252  23.178  0.00  0.00     0.007 A 
HETATM   29  C   UNL     1       9.812  10.480  24.274  0.00  0.00     0.001 A 
HETATM   30  C   UNL     1       9.051   9.393  24.683  0.00  0.00     0.007 A 
HETATM   31  C   UNL     1       7.904   9.032  23.970  0.00  0.00    -0.061 A 
HETATM   32  C   UNL     1       7.461   9.871  22.926  0.00  0.00     0.014 A 
HETATM   33  C   UNL     1       7.193   7.758  24.337  0.00  0.00     0.048 C 
ENDBRANCH  26  27
ENDBRANCH  10  26
TORSDOF 6
ENDMDL
MODEL 7
REMARK VINA RESULT:    -8.157      3.508      9.191
REMARK INTER + INTRA:         -11.930
REMARK INTER:                 -10.508
REMARK INTRA:                  -1.422
REMARK UNBOUND:                -1.150
REMARK  6 active torsions:
REMARK  status: ('A' for Active; 'I' for Inactive)
REMARK    1  A    between atoms: C_3  and  N_4 
REMARK    2  A    between atoms: C_9  and  N_10 
REMARK       I    between atoms: N_10  and  C_12 
REMARK    3  A    between atoms: C_12  and  C_14 
REMARK    4  A    between atoms: C_16  and  O_17 
REMARK    5  A    between atoms: C_24  and  C_25 
REMARK    6  A    between atoms: C_25  and  C_26 
ROOT
HETATM    1  C   UNL     1       4.083  10.178  24.264  0.00  0.00     0.066 C 
HETATM    2  C   UNL     1       3.194  11.216  23.895  0.00  0.00     0.035 C 
HETATM    3  C   UNL     1       3.522   9.023  24.849  0.00  0.00     0.083 C 
HETATM    4  C   UNL     1       2.155   8.929  25.159  0.00  0.00     0.069 C 
HETATM    5  C   UNL     1       1.369  10.061  24.935  0.00  0.00     0.065 A 
HETATM    6  C   UNL     1       1.862  11.220  24.349  0.00  0.00     0.020 A 
HETATM    7  N   UNL     1       0.052  10.323  25.190  0.00  0.00    -0.277 N 
HETATM    8  H   UNL     1      -0.638   9.684  25.563  0.00  0.00     0.189 HD
HETATM    9  N   UNL     1      -0.320  11.586  24.930  0.00  0.00    -0.178 NA
HETATM   10  C   UNL     1       0.786  12.173  24.439  0.00  0.00     0.071 A 
ENDROOT
BRANCH   1  11
HETATM   11  C   UNL     1       5.589  10.253  24.084  0.00  0.00     0.260 C 
HETATM   12  N   UNL     1       6.396  11.130  24.867  0.00  0.00    -0.318 N 
HETATM   13  C   UNL     1       5.785  12.007  25.873  0.00  0.00     0.159 C 
HETATM   14  O   UNL     1       6.039   9.423  23.284  0.00  0.00    -0.267 OA
BRANCH  12  15
HETATM   15  C   UNL     1       7.827  11.315  24.640  0.00  0.00     0.037 A 
HETATM   16  C   UNL     1       8.311  12.447  23.971  0.00  0.00     0.032 A 
HETATM   17  C   UNL     1       9.650  12.587  23.574  0.00  0.00     0.031 A 
HETATM   18  C   UNL     1      10.607  11.609  23.832  0.00  0.00     0.029 A 
HETATM   19  C   UNL     1      10.159  10.537  24.605  0.00  0.00     0.031 A 
HETATM   20  C   UNL     1       8.805  10.388  25.006  0.00  0.00     0.032 A 
BRANCH  18  21
HETATM   21  N   UNL     1      11.895  11.716  23.330  0.00  0.00    -0.390 N 
HETATM   22  C   UNL     1      12.594  10.594  22.720  0.00  0.00     0.149 C 
HETATM   23  C   UNL     1      12.669  12.951  23.432  0.00  0.00     0.149 C 
ENDBRANCH  18  21
ENDBRANCH  12  15
ENDBRANCH   1  11
BRANCH   3  24
HETATM   24  O   UNL     1       4.255   7.903  25.162  0.00  0.00    -0.360 OA
HETATM   25  H   UNL     1       4.310   7.345  24.351  0.00  0.00     0.217 HD
ENDBRANCH   3  24
BRANCH  10  26
HETATM   26  C   UNL     1       0.734  13.649  24.104  0.00  0.00     0.100 C 
BRANCH  26  27
HETATM   27  C   UNL     1       1.943  14.408  24.654  0.00  0.00    -0.052 A 
HETATM   28  C   UNL     1       2.014  14.889  25.968  0.00  0.00     0.007 A 
HETATM   29  C   UNL     1       3.150  15.554  26.436  0.00  0.00     0.001 A 
HETATM   30  C   UNL     1       4.201  15.845  25.577  0.00  0.00     0.007 A 
HETATM   31  C   UNL     1       4.111  15.514  24.222  0.00  0.00    -0.061 A 
HETATM   32  C   UNL     1       3.004  14.759  23.779  0.00  0.00     0.014 A 
HETATM   33  C   UNL     1       5.192  15.984  23.288  0.00  0.00     0.048 C 
ENDBRANCH  26  27
ENDBRANCH  10  26
TORSDOF 6
ENDMDL
MODEL 8
REMARK VINA RESULT:    -8.138      2.591      3.990
REMARK INTER + INTRA:         -11.905
REMARK INTER:                 -10.691
REMARK INTRA:                  -1.214
REMARK UNBOUND:                -1.150
REMARK  6 active torsions:
REMARK  status: ('A' for Active; 'I' for Inactive)
REMARK    1  A    between atoms: C_3  and  N_4 
REMARK    2  A    between atoms: C_9  and  N_10 
REMARK       I    between atoms: N_10  and  C_12 
REMARK    3  A    between atoms: C_12  and  C_14 
REMARK    4  A    between atoms: C_16  and  O_17 
REMARK    5  A    between atoms: C_24  and  C_25 
REMARK    6  A    between atoms: C_25  and  C_26 
ROOT
HETATM    1  C   UNL     1       8.546  12.014  21.955  0.00  0.00     0.066 C 
HETATM    2  C   UNL     1       9.720  12.662  22.410  0.00  0.00     0.035 C 
HETATM    3  C   UNL     1       8.615  11.349  20.713  0.00  0.00     0.083 C 
HETATM    4  C   UNL     1       9.756  11.404  19.895  0.00  0.00     0.069 C 
HETATM    5  C   UNL     1      10.810  12.213  20.323  0.00  0.00     0.065 A 
HETATM    6  C   UNL     1      10.806  12.879  21.541  0.00  0.00     0.020 A 
HETATM    7  N   UNL     1      12.004  12.538  19.743  0.00  0.00    -0.277 N 
HETATM    8  H   UNL     1      12.376  12.187  18.869  0.00  0.00     0.189 HD
HETATM    9  N   UNL     1      12.719  13.448  20.424  0.00  0.00    -0.178 NA
HETATM   10  C   UNL     1      11.989  13.700  21.525  0.00  0.00     0.071 A 
ENDROOT
BRANCH   1  11
HETATM   11  C   UNL     1       7.232  12.016  22.715  0.00  0.00     0.260 C 
HETATM   12  N   UNL     1       6.463  13.206  22.881  0.00  0.00    -0.318 N 
HETATM   13  C   UNL     1       6.932  14.480  22.325  0.00  0.00     0.159 C 
HETATM   14  O   UNL     1       6.860  10.893  23.077  0.00  0.00    -0.267 OA
BRANCH  12  15
HETATM   15  C   UNL     1       5.259  13.270  23.706  0.00  0.00     0.037 A 
HETATM   16  C   UNL     1       3.986  13.312  23.122  0.00  0.00     0.032 A 
HETATM   17  C   UNL     1       2.815  13.550  23.857  0.00  0.00     0.031 A 
HETATM   18  C   UNL     1       2.830  13.748  25.236  0.00  0.00     0.029 A 
HETATM   19  C   UNL     1       4.078  13.583  25.840  0.00  0.00     0.031 A 
HETATM   20  C   UNL     1       5.267  13.346  25.100  0.00  0.00     0.032 A 
BRANCH  18  21
HETATM   21  N   UNL     1       1.678  14.095  25.924  0.00  0.00    -0.390 N 
HETATM   22  C   UNL     1       1.705  14.854  27.166  0.00  0.00     0.149 C 
HETATM   23  C   UNL     1       0.351  13.671  25.483  0.00  0.00     0.149 C 
ENDBRANCH  18  21
ENDBRANCH  12  15
ENDBRANCH   1  11
BRANCH   3  24
HETATM   24  O   UNL     1       7.583  10.597  20.201  0.00  0.00    -0.360 OA
HETATM   25  H   UNL     1       6.851  10.605  20.860  0.00  0.00     0.217 HD
ENDBRANCH   3  24
BRANCH  10  26
HETATM   26  C   UNL     1      12.481  14.755  22.493  0.00  0.00     0.100 C 
BRANCH  26  27
HETATM   27  C   UNL     1      11.607  14.841  23.746  0.00  0.00    -0.052 A 
HETATM   28  C   UNL     1      10.466  15.650  23.831  0.00  0.00     0.007 A 
HETATM   29  C   UNL     1       9.682  15.677  24.987  0.00  0.00     0.001 A 
HETATM   30  C   UNL     1      10.072  14.976  26.121  0.00  0.00     0.007 A 
HETATM   31  C   UNL     1      11.281  14.273  26.129  0.00  0.00    -0.061 A 
HETATM   32  C   UNL     1      12.017  14.174  24.930  0.00  0.00     0.014 A 
HETATM   33  C   UNL     1      11.753  13.660  27.419  0.00  0.00     0.048 C 
ENDBRANCH  26  27
ENDBRANCH  10  26
TORSDOF 6
ENDMDL
MODEL 9
REMARK VINA RESULT:    -8.106      3.984      8.556
REMARK INTER + INTRA:         -11.863
REMARK INTER:                 -10.713
REMARK INTRA:                  -1.150
REMARK UNBOUND:                -1.150
REMARK  6 active torsions:
REMARK  status: ('A' for Active; 'I' for Inactive)
REMARK    1  A    between atoms: C_3  and  N_4 
REMARK    2  A    between atoms: C_9  and  N_10 
REMARK       I    between atoms: N_10  and  C_12 
REMARK    3  A    between atoms: C_12  and  C_14 
REMARK    4  A    between atoms: C_16  and  O_17 
REMARK    5  A    between atoms: C_24  and  C_25 
REMARK    6  A    between atoms: C_25  and  C_26 
ROOT
HETATM    1  C   UNL     1       8.079  10.770  23.971  0.00  0.00     0.066 C 
HETATM    2  C   UNL     1       7.351  11.983  23.998  0.00  0.00     0.035 C 
HETATM    3  C   UNL     1       9.106  10.610  24.925  0.00  0.00     0.083 C 
HETATM    4  C   UNL     1       9.477  11.640  25.806  0.00  0.00     0.069 C 
HETATM    5  C   UNL     1       8.839  12.872  25.654  0.00  0.00     0.065 A 
HETATM    6  C   UNL     1       7.813  13.085  24.742  0.00  0.00     0.020 A 
HETATM    7  N   UNL     1       9.013  14.073  26.281  0.00  0.00    -0.277 N 
HETATM    8  H   UNL     1       9.640  14.278  27.049  0.00  0.00     0.189 HD
HETATM    9  N   UNL     1       8.273  15.073  25.776  0.00  0.00    -0.178 NA
HETATM   10  C   UNL     1       7.544  14.498  24.802  0.00  0.00     0.071 A 
ENDROOT
BRANCH   1  11
HETATM   11  C   UNL     1       7.829   9.658  22.968  0.00  0.00     0.260 C 
HETATM   12  N   UNL     1       6.753   8.735  23.123  0.00  0.00    -0.318 N 
HETATM   13  C   UNL     1       5.851   8.827  24.277  0.00  0.00     0.159 C 
HETATM   14  O   UNL     1       8.573   9.698  21.980  0.00  0.00    -0.267 OA
BRANCH  12  15
HETATM   15  C   UNL     1       6.555   7.584  22.245  0.00  0.00     0.037 A 
HETATM   16  C   UNL     1       5.491   7.545  21.334  0.00  0.00     0.032 A 
HETATM   17  C   UNL     1       5.156   6.398  20.599  0.00  0.00     0.031 A 
HETATM   18  C   UNL     1       5.872   5.208  20.709  0.00  0.00     0.029 A 
HETATM   19  C   UNL     1       7.006   5.278  21.520  0.00  0.00     0.031 A 
HETATM   20  C   UNL     1       7.348   6.435  22.269  0.00  0.00     0.032 A 
BRANCH  18  21
HETATM   21  N   UNL     1       5.453   4.057  20.062  0.00  0.00    -0.390 N 
HETATM   22  C   UNL     1       4.504   3.125  20.655  0.00  0.00     0.149 C 
HETATM   23  C   UNL     1       5.982   3.661  18.758  0.00  0.00     0.149 C 
ENDBRANCH  18  21
ENDBRANCH  12  15
ENDBRANCH   1  11
BRANCH   3  24
HETATM   24  O   UNL     1       9.822   9.446  25.076  0.00  0.00    -0.360 OA
HETATM   25  H   UNL     1       9.347   8.884  25.731  0.00  0.00     0.217 HD
ENDBRANCH   3  24
BRANCH  10  26
HETATM   26  C   UNL     1       6.636  15.375  23.965  0.00  0.00     0.100 C 
BRANCH  26  27
HETATM   27  C   UNL     1       5.163  15.205  24.340  0.00  0.00    -0.052 A 
HETATM   28  C   UNL     1       4.195  14.722  23.449  0.00  0.00     0.007 A 
HETATM   29  C   UNL     1       2.865  14.558  23.844  0.00  0.00     0.001 A 
HETATM   30  C   UNL     1       2.447  14.966  25.104  0.00  0.00     0.007 A 
HETATM   31  C   UNL     1       3.348  15.589  25.973  0.00  0.00    -0.061 A 
HETATM   32  C   UNL     1       4.707  15.664  25.604  0.00  0.00     0.014 A 
HETATM   33  C   UNL     1       2.830  16.163  27.263  0.00  0.00     0.048 C 
ENDBRANCH  26  27
ENDBRANCH  10  26
TORSDOF 6
ENDMDL
