REMARK  6 active torsions:
REMARK  status: ('A' for Active; 'I' for Inactive)
REMARK    1  A    between atoms: C_3  and  N_4 
REMARK    2  A    between atoms: C_9  and  N_10 
REMARK       I    between atoms: N_10  and  C_12 
REMARK    3  A    between atoms: C_12  and  C_14 
REMARK    4  A    between atoms: C_16  and  O_17 
REMARK    5  A    between atoms: C_24  and  C_25 
REMARK    6  A    between atoms: C_25  and  C_26 
ROOT
HETATM    1  C   UNL     1      -5.183   1.165  -0.200  0.00  0.00     0.066 C 
HETATM    2  C   UNL     1      -5.826  -0.077   0.017  0.00  0.00     0.035 C 
HETATM    3  C   UNL     1      -5.999   2.265  -0.539  0.00  0.00     0.083 C 
HETATM    4  C   UNL     1      -7.380   2.134  -0.761  0.00  0.00     0.069 C 
HETATM    5  C   UNL     1      -7.916   0.846  -0.709  0.00  0.00     0.065 A 
HETATM    6  C   UNL     1      -7.166  -0.272  -0.367  0.00  0.00     0.020 A 
HETATM    7  N   UNL     1      -9.176   0.372  -0.944  0.00  0.00    -0.277 N 
HETATM    8  H   UNL     1     -10.003   0.913  -1.162  0.00  0.00     0.189 HD
HETATM    9  N   UNL     1      -9.280  -0.966  -0.900  0.00  0.00    -0.178 NA
HETATM   10  C   UNL     1      -8.046  -1.393  -0.576  0.00  0.00     0.071 A 
ENDROOT
BRANCH   1  11
HETATM   11  C   UNL     1      -3.681   1.365  -0.109  0.00  0.00     0.260 C 
HETATM   12  N   UNL     1      -2.763   0.336  -0.473  0.00  0.00    -0.318 N 
HETATM   13  C   UNL     1      -3.250  -0.967  -0.940  0.00  0.00     0.159 C 
HETATM   14  O   UNL     1      -3.347   2.514   0.207  0.00  0.00    -0.267 OA
BRANCH  12  15
HETATM   15  C   UNL     1      -1.319   0.451  -0.285  0.00  0.00     0.037 A 
HETATM   16  C   UNL     1      -0.443  -0.500  -0.825  0.00  0.00     0.032 A 
HETATM   17  C   UNL     1       0.928  -0.533  -0.527  0.00  0.00     0.031 A 
HETATM   18  C   UNL     1       1.527   0.395   0.322  0.00  0.00     0.029 A 
HETATM   19  C   UNL     1       0.685   1.417   0.763  0.00  0.00     0.031 A 
HETATM   20  C   UNL     1      -0.704   1.453   0.468  0.00  0.00     0.032 A 
BRANCH  18  21
HETATM   21  N   UNL     1       2.857   0.274   0.692  0.00  0.00    -0.390 N 
HETATM   22  C   UNL     1       3.660   1.414   1.113  0.00  0.00     0.149 C 
HETATM   23  C   UNL     1       3.570  -1.000   0.628  0.00  0.00     0.149 C 
ENDBRANCH  18  21
ENDBRANCH  12  15
ENDBRANCH   1  11
BRANCH   3  24
HETATM   24  O   UNL     1      -5.519   3.546  -0.678  0.00  0.00    -0.360 OA
HETATM   25  H   UNL     1      -4.585   3.552  -0.364  0.00  0.00     0.217 HD
ENDBRANCH   3  24
BRANCH  10  26
HETATM   26  C   UNL     1      -7.790  -2.884  -0.512  0.00  0.00     0.100 C 
BRANCH  26  27
HETATM   27  C   UNL     1      -6.889  -3.364  -1.651  0.00  0.00    -0.052 A 
HETATM   28  C   UNL     1      -6.724  -2.656  -2.849  0.00  0.00     0.007 A 
HETATM   29  C   UNL     1      -5.869  -3.119  -3.852  0.00  0.00     0.001 A 
HETATM   30  C   UNL     1      -5.236  -4.349  -3.728  0.00  0.00     0.007 A 
HETATM   31  C   UNL     1      -5.487  -5.157  -2.615  0.00  0.00    -0.061 A 
HETATM   32  C   UNL     1      -6.275  -4.641  -1.565  0.00  0.00     0.014 A 
HETATM   33  C   UNL     1      -4.915  -6.548  -2.586  0.00  0.00     0.048 C 
ENDBRANCH  26  27
ENDBRANCH  10  26
TORSDOF 6
