MODEL 1
REMARK VINA RESULT:    -6.304      0.000      0.000
REMARK INTER + INTRA:          -8.266
REMARK INTER:                  -7.351
REMARK INTRA:                  -0.915
REMARK UNBOUND:                -0.856
REMARK  4 active torsions:
REMARK  status: ('A' for Active; 'I' for Inactive)
REMARK    1  A    between atoms: O_1  and  C_2 
REMARK    2  A    between atoms: C_4  and  O_5 
REMARK    3  A    between atoms: C_6  and  C_7 
REMARK    4  A    between atoms: N_11  and  C_12 
ROOT
HETATM    1  C   UNL     1       5.448  11.332  20.323  0.00  0.00     0.073 C 
HETATM    2  C   UNL     1       5.120  11.358  18.972  0.00  0.00     0.053 C 
HETATM    3  C   UNL     1       4.566  10.113  18.677  0.00  0.00     0.141 C 
HETATM    4  N   UNL     1       4.563   9.303  19.727  0.00  0.00    -0.179 NA
HETATM    5  N   UNL     1       4.981  10.082  20.771  0.00  0.00    -0.230 N 
ENDROOT
BRANCH   1   6
HETATM    6  C   UNL     1       6.172  12.373  21.096  0.00  0.00     0.027 C 
HETATM    7  C   UNL     1       7.557  12.587  20.949  0.00  0.00     0.081 C 
HETATM    8  C   UNL     1       8.210  13.648  21.583  0.00  0.00     0.075 C 
HETATM    9  C   UNL     1       7.480  14.529  22.377  0.00  0.00     0.085 C 
HETATM   10  C   UNL     1       6.126  14.294  22.610  0.00  0.00     0.040 C 
HETATM   11  C   UNL     1       5.495  13.192  22.018  0.00  0.00     0.037 C 
HETATM   12  I   UNL     1       4.958  15.600  23.754  0.00  0.00    -0.042 I 
BRANCH   7  13
HETATM   13  O   UNL     1       8.308  11.752  20.161  0.00  0.00    -0.360 OA
HETATM   14  H   UNL     1       9.176  12.154  19.996  0.00  0.00     0.217 HD
ENDBRANCH   7  13
BRANCH   9  15
HETATM   15  O   UNL     1       8.099  15.620  22.921  0.00  0.00    -0.359 OA
HETATM   16  H   UNL     1       8.778  15.948  22.310  0.00  0.00     0.217 HD
ENDBRANCH   9  15
ENDBRANCH   1   6
BRANCH   5  17
HETATM   17  C   UNL     1       4.935   9.507  22.071  0.00  0.00     0.097 A 
HETATM   18  C   UNL     1       5.770   8.409  22.356  0.00  0.00     0.035 A 
HETATM   19  C   UNL     1       5.838   7.888  23.650  0.00  0.00     0.002 A 
HETATM   20  C   UNL     1       5.059   8.439  24.666  0.00  0.00     0.003 A 
HETATM   21  C   UNL     1       4.175   9.477  24.374  0.00  0.00     0.045 A 
HETATM   22  C   UNL     1       4.095   9.984  23.077  0.00  0.00     0.145 A 
HETATM   23  F   UNL     1       3.162  10.915  22.830  0.00  0.00    -0.204 F 
ENDBRANCH   5  17
TORSDOF 4
ENDMDL
MODEL 2
REMARK VINA RESULT:    -6.247      3.504      5.619
REMARK INTER + INTRA:          -8.200
REMARK INTER:                  -7.236
REMARK INTRA:                  -0.964
REMARK UNBOUND:                -0.856
REMARK  4 active torsions:
REMARK  status: ('A' for Active; 'I' for Inactive)
REMARK    1  A    between atoms: O_1  and  C_2 
REMARK    2  A    between atoms: C_4  and  O_5 
REMARK    3  A    between atoms: C_6  and  C_7 
REMARK    4  A    between atoms: N_11  and  C_12 
ROOT
HETATM    1  C   UNL     1       8.140  12.760  23.588  0.00  0.00     0.073 C 
HETATM    2  C   UNL     1       9.327  12.466  24.248  0.00  0.00     0.053 C 
HETATM    3  C   UNL     1       9.371  13.293  25.370  0.00  0.00     0.141 C 
HETATM    4  N   UNL     1       8.325  14.106  25.435  0.00  0.00    -0.179 NA
HETATM    5  N   UNL     1       7.501  13.699  24.421  0.00  0.00    -0.230 N 
ENDROOT
BRANCH   1   6
HETATM    6  C   UNL     1       7.681  12.235  22.277  0.00  0.00     0.027 C 
HETATM    7  C   UNL     1       8.156  12.753  21.056  0.00  0.00     0.081 C 
HETATM    8  C   UNL     1       7.819  12.174  19.829  0.00  0.00     0.075 C 
HETATM    9  C   UNL     1       7.000  11.047  19.802  0.00  0.00     0.085 C 
HETATM   10  C   UNL     1       6.447  10.563  20.986  0.00  0.00     0.040 C 
HETATM   11  C   UNL     1       6.742  11.189  22.204  0.00  0.00     0.037 C 
HETATM   12  I   UNL     1       5.246   8.850  21.026  0.00  0.00    -0.042 I 
BRANCH   7  13
HETATM   13  O   UNL     1       8.979  13.850  21.041  0.00  0.00    -0.360 OA
HETATM   14  H   UNL     1       9.718  13.710  21.654  0.00  0.00     0.217 HD
ENDBRANCH   7  13
BRANCH   9  15
HETATM   15  O   UNL     1       6.746  10.424  18.612  0.00  0.00    -0.359 OA
HETATM   16  H   UNL     1       5.903  10.743  18.251  0.00  0.00     0.217 HD
ENDBRANCH   9  15
ENDBRANCH   1   6
BRANCH   5  17
HETATM   17  C   UNL     1       6.218  14.307  24.341  0.00  0.00     0.097 A 
HETATM   18  C   UNL     1       6.132  15.658  23.953  0.00  0.00     0.035 A 
HETATM   19  C   UNL     1       4.887  16.260  23.753  0.00  0.00     0.002 A 
HETATM   20  C   UNL     1       3.718  15.530  23.960  0.00  0.00     0.003 A 
HETATM   21  C   UNL     1       3.796  14.214  24.416  0.00  0.00     0.045 A 
HETATM   22  C   UNL     1       5.040  13.621  24.633  0.00  0.00     0.145 A 
HETATM   23  F   UNL     1       5.057  12.389  25.162  0.00  0.00    -0.204 F 
ENDBRANCH   5  17
TORSDOF 4
ENDMDL
MODEL 3
REMARK VINA RESULT:    -6.242      1.201      1.520
REMARK INTER + INTRA:          -8.193
REMARK INTER:                  -7.200
REMARK INTRA:                  -0.993
REMARK UNBOUND:                -0.856
REMARK  4 active torsions:
REMARK  status: ('A' for Active; 'I' for Inactive)
REMARK    1  A    between atoms: O_1  and  C_2 
REMARK    2  A    between atoms: C_4  and  O_5 
REMARK    3  A    between atoms: C_6  and  C_7 
REMARK    4  A    between atoms: N_11  and  C_12 
ROOT
HETATM    1  C   UNL     1       5.645  11.320  20.385  0.00  0.00     0.073 C 
HETATM    2  C   UNL     1       5.172  11.338  19.078  0.00  0.00     0.053 C 
HETATM    3  C   UNL     1       4.680  10.058  18.819  0.00  0.00     0.141 C 
HETATM    4  N   UNL     1       4.850   9.238  19.847  0.00  0.00    -0.179 NA
HETATM    5  N   UNL     1       5.321  10.033  20.856  0.00  0.00    -0.230 N 
ENDROOT
BRANCH   1   6
HETATM    6  C   UNL     1       6.371  12.402  21.097  0.00  0.00     0.027 C 
HETATM    7  C   UNL     1       7.737  12.663  20.868  0.00  0.00     0.081 C 
HETATM    8  C   UNL     1       8.385  13.759  21.444  0.00  0.00     0.075 C 
HETATM    9  C   UNL     1       7.667  14.630  22.261  0.00  0.00     0.085 C 
HETATM   10  C   UNL     1       6.338  14.351  22.574  0.00  0.00     0.040 C 
HETATM   11  C   UNL     1       5.716  13.215  22.040  0.00  0.00     0.037 C 
HETATM   12  I   UNL     1       5.187  15.637  23.758  0.00  0.00    -0.042 I 
BRANCH   7  13
HETATM   13  O   UNL     1       8.473  11.840  20.055  0.00  0.00    -0.360 OA
HETATM   14  H   UNL     1       7.938  11.574  19.290  0.00  0.00     0.217 HD
ENDBRANCH   7  13
BRANCH   9  15
HETATM   15  O   UNL     1       8.274  15.754  22.750  0.00  0.00    -0.359 OA
HETATM   16  H   UNL     1       7.690  16.520  22.626  0.00  0.00     0.217 HD
ENDBRANCH   9  15
ENDBRANCH   1   6
BRANCH   5  17
HETATM   17  C   UNL     1       5.457   9.441  22.142  0.00  0.00     0.097 A 
HETATM   18  C   UNL     1       4.302   9.247  22.923  0.00  0.00     0.035 A 
HETATM   19  C   UNL     1       4.377   8.567  24.141  0.00  0.00     0.002 A 
HETATM   20  C   UNL     1       5.604   8.095  24.603  0.00  0.00     0.003 A 
HETATM   21  C   UNL     1       6.763   8.349  23.869  0.00  0.00     0.045 A 
HETATM   22  C   UNL     1       6.689   9.044  22.662  0.00  0.00     0.145 A 
HETATM   23  F   UNL     1       7.841   9.345  22.046  0.00  0.00    -0.204 F 
ENDBRANCH   5  17
TORSDOF 4
ENDMDL
MODEL 4
REMARK VINA RESULT:    -6.214      3.265      5.591
REMARK INTER + INTRA:          -8.160
REMARK INTER:                  -7.812
REMARK INTRA:                  -0.348
REMARK UNBOUND:                -0.856
REMARK  4 active torsions:
REMARK  status: ('A' for Active; 'I' for Inactive)
REMARK    1  A    between atoms: O_1  and  C_2 
REMARK    2  A    between atoms: C_4  and  O_5 
REMARK    3  A    between atoms: C_6  and  C_7 
REMARK    4  A    between atoms: N_11  and  C_12 
ROOT
HETATM    1  C   UNL     1       7.813  13.284  21.601  0.00  0.00     0.073 C 
HETATM    2  C   UNL     1       9.067  13.576  21.078  0.00  0.00     0.053 C 
HETATM    3  C   UNL     1       9.319  14.913  21.381  0.00  0.00     0.141 C 
HETATM    4  N   UNL     1       8.304  15.484  22.015  0.00  0.00    -0.179 NA
HETATM    5  N   UNL     1       7.430  14.463  22.269  0.00  0.00    -0.230 N 
ENDROOT
BRANCH   1   6
HETATM    6  C   UNL     1       7.039  12.026  21.444  0.00  0.00     0.027 C 
HETATM    7  C   UNL     1       6.750  11.184  22.536  0.00  0.00     0.081 C 
HETATM    8  C   UNL     1       5.916  10.069  22.407  0.00  0.00     0.075 C 
HETATM    9  C   UNL     1       5.342   9.780  21.171  0.00  0.00     0.085 C 
HETATM   10  C   UNL     1       5.678  10.543  20.054  0.00  0.00     0.040 C 
HETATM   11  C   UNL     1       6.563  11.621  20.183  0.00  0.00     0.037 C 
HETATM   12  I   UNL     1       4.821  10.193  18.177  0.00  0.00    -0.042 I 
BRANCH   7  13
HETATM   13  O   UNL     1       7.279  11.447  23.774  0.00  0.00    -0.360 OA
HETATM   14  H   UNL     1       6.569  11.467  24.434  0.00  0.00     0.217 HD
ENDBRANCH   7  13
BRANCH   9  15
HETATM   15  O   UNL     1       4.454   8.746  21.063  0.00  0.00    -0.359 OA
HETATM   16  H   UNL     1       4.705   8.035  21.676  0.00  0.00     0.217 HD
ENDBRANCH   9  15
ENDBRANCH   1   6
BRANCH   5  17
HETATM   17  C   UNL     1       6.299  14.760  23.078  0.00  0.00     0.097 A 
HETATM   18  C   UNL     1       6.499  15.437  24.298  0.00  0.00     0.035 A 
HETATM   19  C   UNL     1       5.407  15.847  25.067  0.00  0.00     0.002 A 
HETATM   20  C   UNL     1       4.109  15.568  24.641  0.00  0.00     0.003 A 
HETATM   21  C   UNL     1       3.907  14.834  23.472  0.00  0.00     0.045 A 
HETATM   22  C   UNL     1       4.999  14.409  22.716  0.00  0.00     0.145 A 
HETATM   23  F   UNL     1       4.754  13.626  21.655  0.00  0.00    -0.204 F 
ENDBRANCH   5  17
TORSDOF 4
ENDMDL
MODEL 5
REMARK VINA RESULT:    -6.207      3.693      5.653
REMARK INTER + INTRA:          -8.153
REMARK INTER:                  -7.261
REMARK INTRA:                  -0.891
REMARK UNBOUND:                -0.856
REMARK  4 active torsions:
REMARK  status: ('A' for Active; 'I' for Inactive)
REMARK    1  A    between atoms: O_1  and  C_2 
REMARK    2  A    between atoms: C_4  and  O_5 
REMARK    3  A    between atoms: C_6  and  C_7 
REMARK    4  A    between atoms: N_11  and  C_12 
ROOT
HETATM    1  C   UNL     1       8.037  12.815  23.593  0.00  0.00     0.073 C 
HETATM    2  C   UNL     1       9.235  12.565  24.250  0.00  0.00     0.053 C 
HETATM    3  C   UNL     1       9.228  13.356  25.399  0.00  0.00     0.141 C 
HETATM    4  N   UNL     1       8.139  14.108  25.483  0.00  0.00    -0.179 NA
HETATM    5  N   UNL     1       7.344  13.691  24.452  0.00  0.00    -0.230 N 
ENDROOT
BRANCH   1   6
HETATM    6  C   UNL     1       7.613  12.309  22.263  0.00  0.00     0.027 C 
HETATM    7  C   UNL     1       8.108  12.857  21.061  0.00  0.00     0.081 C 
HETATM    8  C   UNL     1       7.805  12.296  19.817  0.00  0.00     0.075 C 
HETATM    9  C   UNL     1       7.002  11.160  19.751  0.00  0.00     0.085 C 
HETATM   10  C   UNL     1       6.429  10.647  20.913  0.00  0.00     0.040 C 
HETATM   11  C   UNL     1       6.690  11.254  22.150  0.00  0.00     0.037 C 
HETATM   12  I   UNL     1       5.250   8.918  20.896  0.00  0.00    -0.042 I 
BRANCH   7  13
HETATM   13  O   UNL     1       8.917  13.963  21.085  0.00  0.00    -0.360 OA
HETATM   14  H   UNL     1       9.692  13.787  21.641  0.00  0.00     0.217 HD
ENDBRANCH   7  13
BRANCH   9  15
HETATM   15  O   UNL     1       6.781  10.557  18.545  0.00  0.00    -0.359 OA
HETATM   16  H   UNL     1       6.529  11.225  17.887  0.00  0.00     0.217 HD
ENDBRANCH   9  15
ENDBRANCH   1   6
BRANCH   5  17
HETATM   17  C   UNL     1       6.030  14.230  24.384  0.00  0.00     0.097 A 
HETATM   18  C   UNL     1       4.956  13.458  24.869  0.00  0.00     0.035 A 
HETATM   19  C   UNL     1       3.667  13.995  24.925  0.00  0.00     0.002 A 
HETATM   20  C   UNL     1       3.431  15.293  24.477  0.00  0.00     0.003 A 
HETATM   21  C   UNL     1       4.476  16.035  23.927  0.00  0.00     0.045 A 
HETATM   22  C   UNL     1       5.759  15.491  23.854  0.00  0.00     0.145 A 
HETATM   23  F   UNL     1       6.704  16.208  23.230  0.00  0.00    -0.204 F 
ENDBRANCH   5  17
TORSDOF 4
ENDMDL
MODEL 6
REMARK VINA RESULT:    -6.200      3.990      5.781
REMARK INTER + INTRA:          -8.144
REMARK INTER:                  -7.443
REMARK INTRA:                  -0.701
REMARK UNBOUND:                -0.856
REMARK  4 active torsions:
REMARK  status: ('A' for Active; 'I' for Inactive)
REMARK    1  A    between atoms: O_1  and  C_2 
REMARK    2  A    between atoms: C_4  and  O_5 
REMARK    3  A    between atoms: C_6  and  C_7 
REMARK    4  A    between atoms: N_11  and  C_12 
ROOT
HETATM    1  C   UNL     1       5.452  13.845  22.873  0.00  0.00     0.073 C 
HETATM    2  C   UNL     1       6.615  14.592  23.013  0.00  0.00     0.053 C 
HETATM    3  C   UNL     1       6.220  15.871  23.403  0.00  0.00     0.141 C 
HETATM    4  N   UNL     1       4.901  15.987  23.476  0.00  0.00    -0.179 NA
HETATM    5  N   UNL     1       4.425  14.720  23.279  0.00  0.00    -0.230 N 
ENDROOT
BRANCH   1   6
HETATM    6  C   UNL     1       5.325  12.457  22.362  0.00  0.00     0.027 C 
HETATM    7  C   UNL     1       5.153  11.355  23.224  0.00  0.00     0.081 C 
HETATM    8  C   UNL     1       4.908  10.069  22.735  0.00  0.00     0.075 C 
HETATM    9  C   UNL     1       4.821   9.860  21.360  0.00  0.00     0.085 C 
HETATM   10  C   UNL     1       5.071  10.912  20.482  0.00  0.00     0.040 C 
HETATM   11  C   UNL     1       5.376  12.185  20.982  0.00  0.00     0.037 C 
HETATM   12  I   UNL     1       4.913  10.683  18.407  0.00  0.00    -0.042 I 
BRANCH   7  13
HETATM   13  O   UNL     1       5.213  11.522  24.583  0.00  0.00    -0.360 OA
HETATM   14  H   UNL     1       5.302  10.658  25.014  0.00  0.00     0.217 HD
ENDBRANCH   7  13
BRANCH   9  15
HETATM   15  O   UNL     1       4.489   8.622  20.883  0.00  0.00    -0.359 OA
HETATM   16  H   UNL     1       4.925   8.475  20.028  0.00  0.00     0.217 HD
ENDBRANCH   9  15
ENDBRANCH   1   6
BRANCH   5  17
HETATM   17  C   UNL     1       3.028  14.515  23.450  0.00  0.00     0.097 A 
HETATM   18  C   UNL     1       2.270  14.066  22.350  0.00  0.00     0.035 A 
HETATM   19  C   UNL     1       0.920  13.745  22.506  0.00  0.00     0.002 A 
HETATM   20  C   UNL     1       0.306  13.888  23.749  0.00  0.00     0.003 A 
HETATM   21  C   UNL     1       1.032  14.402  24.823  0.00  0.00     0.045 A 
HETATM   22  C   UNL     1       2.376  14.740  24.662  0.00  0.00     0.145 A 
HETATM   23  F   UNL     1       3.000  15.319  25.698  0.00  0.00    -0.204 F 
ENDBRANCH   5  17
TORSDOF 4
ENDMDL
MODEL 7
REMARK VINA RESULT:    -5.955      2.266      2.751
REMARK INTER + INTRA:          -7.856
REMARK INTER:                  -6.900
REMARK INTRA:                  -0.955
REMARK UNBOUND:                -0.856
REMARK  4 active torsions:
REMARK  status: ('A' for Active; 'I' for Inactive)
REMARK    1  A    between atoms: O_1  and  C_2 
REMARK    2  A    between atoms: C_4  and  O_5 
REMARK    3  A    between atoms: C_6  and  C_7 
REMARK    4  A    between atoms: N_11  and  C_12 
ROOT
HETATM    1  C   UNL     1       5.420  11.299  20.352  0.00  0.00     0.073 C 
HETATM    2  C   UNL     1       5.057  11.267  19.011  0.00  0.00     0.053 C 
HETATM    3  C   UNL     1       5.431  10.013  18.529  0.00  0.00     0.141 C 
HETATM    4  N   UNL     1       6.035   9.280  19.455  0.00  0.00    -0.179 NA
HETATM    5  N   UNL     1       5.919  10.007  20.608  0.00  0.00    -0.230 N 
ENDROOT
BRANCH   1   6
HETATM    6  C   UNL     1       5.343  12.453  21.282  0.00  0.00     0.027 C 
HETATM    7  C   UNL     1       4.159  12.779  21.974  0.00  0.00     0.081 C 
HETATM    8  C   UNL     1       4.125  13.787  22.942  0.00  0.00     0.075 C 
HETATM    9  C   UNL     1       5.289  14.488  23.246  0.00  0.00     0.085 C 
HETATM   10  C   UNL     1       6.454  14.248  22.519  0.00  0.00     0.040 C 
HETATM   11  C   UNL     1       6.461  13.277  21.508  0.00  0.00     0.037 C 
HETATM   12  I   UNL     1       8.250  15.232  22.950  0.00  0.00    -0.042 I 
BRANCH   7  13
HETATM   13  O   UNL     1       2.997  12.099  21.717  0.00  0.00    -0.360 OA
HETATM   14  H   UNL     1       2.526  11.933  22.549  0.00  0.00     0.217 HD
ENDBRANCH   7  13
BRANCH   9  15
HETATM   15  O   UNL     1       5.280  15.409  24.256  0.00  0.00    -0.359 OA
HETATM   16  H   UNL     1       6.083  15.954  24.209  0.00  0.00     0.217 HD
ENDBRANCH   9  15
ENDBRANCH   1   6
BRANCH   5  17
HETATM   17  C   UNL     1       6.356   9.389  21.813  0.00  0.00     0.097 A 
HETATM   18  C   UNL     1       5.509   8.455  22.440  0.00  0.00     0.035 A 
HETATM   19  C   UNL     1       5.946   7.744  23.561  0.00  0.00     0.002 A 
HETATM   20  C   UNL     1       7.219   7.972  24.079  0.00  0.00     0.003 A 
HETATM   21  C   UNL     1       8.034   8.949  23.507  0.00  0.00     0.045 A 
HETATM   22  C   UNL     1       7.589   9.671  22.400  0.00  0.00     0.145 A 
HETATM   23  F   UNL     1       8.370  10.663  21.950  0.00  0.00    -0.204 F 
ENDBRANCH   5  17
TORSDOF 4
ENDMDL
MODEL 8
REMARK VINA RESULT:    -5.940      2.588      3.886
REMARK INTER + INTRA:          -7.838
REMARK INTER:                  -6.881
REMARK INTRA:                  -0.958
REMARK UNBOUND:                -0.856
REMARK  4 active torsions:
REMARK  status: ('A' for Active; 'I' for Inactive)
REMARK    1  A    between atoms: O_1  and  C_2 
REMARK    2  A    between atoms: C_4  and  O_5 
REMARK    3  A    between atoms: C_6  and  C_7 
REMARK    4  A    between atoms: N_11  and  C_12 
ROOT
HETATM    1  C   UNL     1       4.065  13.518  22.848  0.00  0.00     0.073 C 
HETATM    2  C   UNL     1       2.866  14.151  23.152  0.00  0.00     0.053 C 
HETATM    3  C   UNL     1       1.913  13.637  22.273  0.00  0.00     0.141 C 
HETATM    4  N   UNL     1       2.436  12.765  21.421  0.00  0.00    -0.179 NA
HETATM    5  N   UNL     1       3.724  12.588  21.846  0.00  0.00    -0.230 N 
ENDROOT
BRANCH   1   6
HETATM    6  C   UNL     1       5.406  13.801  23.419  0.00  0.00     0.027 C 
HETATM    7  C   UNL     1       5.813  13.280  24.664  0.00  0.00     0.081 C 
HETATM    8  C   UNL     1       7.117  13.443  25.140  0.00  0.00     0.075 C 
HETATM    9  C   UNL     1       8.051  14.129  24.366  0.00  0.00     0.085 C 
HETATM   10  C   UNL     1       7.656  14.728  23.172  0.00  0.00     0.040 C 
HETATM   11  C   UNL     1       6.330  14.610  22.734  0.00  0.00     0.037 C 
HETATM   12  I   UNL     1       9.013  15.735  21.937  0.00  0.00    -0.042 I 
BRANCH   7  13
HETATM   13  O   UNL     1       4.929  12.582  25.447  0.00  0.00    -0.360 OA
HETATM   14  H   UNL     1       5.175  11.644  25.459  0.00  0.00     0.217 HD
ENDBRANCH   7  13
BRANCH   9  15
HETATM   15  O   UNL     1       9.350  14.209  24.786  0.00  0.00    -0.359 OA
HETATM   16  H   UNL     1       9.878  14.684  24.124  0.00  0.00     0.217 HD
ENDBRANCH   9  15
ENDBRANCH   1   6
BRANCH   5  17
HETATM   17  C   UNL     1       4.491  11.582  21.197  0.00  0.00     0.097 A 
HETATM   18  C   UNL     1       4.747  11.710  19.818  0.00  0.00     0.035 A 
HETATM   19  C   UNL     1       5.590  10.806  19.167  0.00  0.00     0.002 A 
HETATM   20  C   UNL     1       6.166   9.754  19.877  0.00  0.00     0.003 A 
HETATM   21  C   UNL     1       5.857   9.578  21.226  0.00  0.00     0.045 A 
HETATM   22  C   UNL     1       5.001  10.472  21.870  0.00  0.00     0.145 A 
HETATM   23  F   UNL     1       4.662  10.203  23.138  0.00  0.00    -0.204 F 
ENDBRANCH   5  17
TORSDOF 4
ENDMDL
MODEL 9
REMARK VINA RESULT:    -5.932      2.611      3.713
REMARK INTER + INTRA:          -7.829
REMARK INTER:                  -6.973
REMARK INTRA:                  -0.856
REMARK UNBOUND:                -0.856
REMARK  4 active torsions:
REMARK  status: ('A' for Active; 'I' for Inactive)
REMARK    1  A    between atoms: O_1  and  C_2 
REMARK    2  A    between atoms: C_4  and  O_5 
REMARK    3  A    between atoms: C_6  and  C_7 
REMARK    4  A    between atoms: N_11  and  C_12 
ROOT
HETATM    1  C   UNL     1       7.711  13.597  21.979  0.00  0.00     0.073 C 
HETATM    2  C   UNL     1       8.526  14.286  21.089  0.00  0.00     0.053 C 
HETATM    3  C   UNL     1       9.371  13.337  20.513  0.00  0.00     0.141 C 
HETATM    4  N   UNL     1       9.170  12.122  21.005  0.00  0.00    -0.179 NA
HETATM    5  N   UNL     1       8.071  12.247  21.809  0.00  0.00    -0.230 N 
ENDROOT
BRANCH   1   6
HETATM    6  C   UNL     1       6.722  14.171  22.927  0.00  0.00     0.027 C 
HETATM    7  C   UNL     1       7.112  14.948  24.036  0.00  0.00     0.081 C 
HETATM    8  C   UNL     1       6.176  15.590  24.852  0.00  0.00     0.075 C 
HETATM    9  C   UNL     1       4.818  15.473  24.564  0.00  0.00     0.085 C 
HETATM   10  C   UNL     1       4.398  14.642  23.527  0.00  0.00     0.040 C 
HETATM   11  C   UNL     1       5.343  13.955  22.754  0.00  0.00     0.037 C 
HETATM   12  I   UNL     1       2.379  14.453  23.010  0.00  0.00    -0.042 I 
BRANCH   7  13
HETATM   13  O   UNL     1       8.440  15.104  24.341  0.00  0.00    -0.360 OA
HETATM   14  H   UNL     1       8.957  15.161  23.522  0.00  0.00     0.217 HD
ENDBRANCH   7  13
BRANCH   9  15
HETATM   15  O   UNL     1       3.907  16.174  25.304  0.00  0.00    -0.359 OA
HETATM   16  H   UNL     1       3.022  16.070  24.917  0.00  0.00     0.217 HD
ENDBRANCH   9  15
ENDBRANCH   1   6
BRANCH   5  17
HETATM   17  C   UNL     1       7.532  11.053  22.363  0.00  0.00     0.097 A 
HETATM   18  C   UNL     1       8.299  10.336  23.303  0.00  0.00     0.035 A 
HETATM   19  C   UNL     1       7.762   9.223  23.954  0.00  0.00     0.002 A 
HETATM   20  C   UNL     1       6.467   8.800  23.661  0.00  0.00     0.003 A 
HETATM   21  C   UNL     1       5.730   9.461  22.678  0.00  0.00     0.045 A 
HETATM   22  C   UNL     1       6.274  10.560  22.015  0.00  0.00     0.145 A 
HETATM   23  F   UNL     1       5.562  11.098  21.015  0.00  0.00    -0.204 F 
ENDBRANCH   5  17
TORSDOF 4
ENDMDL
