MODEL 1
REMARK VINA RESULT:    -8.144      0.000      0.000
REMARK INTER + INTRA:         -12.243
REMARK INTER:                 -11.045
REMARK INTRA:                  -1.198
REMARK UNBOUND:                -1.243
REMARK  7 active torsions:
REMARK  status: ('A' for Active; 'I' for Inactive)
REMARK    1  A    between atoms: O_2  and  C_3 
REMARK    2  A    between atoms: C_6  and  C_7 
REMARK    3  A    between atoms: C_9  and  N_10 
REMARK    4  A    between atoms: C_11  and  C_12 
REMARK       I    between atoms: C_12  and  N_14 
REMARK    5  A    between atoms: N_14  and  C_15 
REMARK    6  A    between atoms: C_25  and  N_26 
REMARK    7  A    between atoms: C_31  and  O_32 
ROOT
HETATM    1  C   UNL     1       9.413  14.490  24.295  0.00  0.00     0.013 C 
HETATM    2  C   UNL     1       8.031  14.803  24.565  0.00  0.00     0.035 C 
HETATM    3  C   UNL     1       6.834  15.021  23.764  0.00  0.00     0.043 C 
HETATM    4  C   UNL     1       5.662  14.966  24.504  0.00  0.00     0.097 C 
HETATM    5  S   UNL     1       6.012  14.965  26.180  0.00  0.00    -0.062 SA
HETATM    6  C   UNL     1       7.685  14.912  25.910  0.00  0.00     0.113 C 
HETATM    7  N   UNL     1       8.510  14.919  26.971  0.00  0.00    -0.227 NA
HETATM    8  C   UNL     1       9.799  14.715  26.704  0.00  0.00     0.123 C 
HETATM    9  C   UNL     1      10.282  14.430  25.428  0.00  0.00     0.096 C 
HETATM   10  C   UNL     1      11.658  14.032  25.325  0.00  0.00     0.103 C 
HETATM   11  N   UNL     1      12.789  13.754  25.239  0.00  0.00    -0.191 NA
ENDROOT
BRANCH   1  12
HETATM   12  C   UNL     1       9.854  14.063  22.938  0.00  0.00    -0.021 C 
HETATM   13  C   UNL     1      10.639  14.874  22.110  0.00  0.00     0.015 C 
HETATM   14  C   UNL     1      11.284  14.346  20.988  0.00  0.00     0.040 C 
HETATM   15  C   UNL     1      11.093  13.011  20.607  0.00  0.00     0.101 C 
HETATM   16  C   UNL     1      10.132  12.256  21.272  0.00  0.00     0.102 C 
HETATM   17  C   UNL     1       9.607  12.761  22.470  0.00  0.00     0.052 C 
BRANCH  15  18
HETATM   18  O   UNL     1      11.882  12.438  19.644  0.00  0.00    -0.353 OA
HETATM   19  C   UNL     1      12.933  11.630  20.196  0.00  0.00     0.210 C 
ENDBRANCH  15  18
BRANCH  16  20
HETATM   20  O   UNL     1       9.645  11.012  20.987  0.00  0.00    -0.353 OA
HETATM   21  C   UNL     1       8.979  10.281  22.007  0.00  0.00     0.210 C 
ENDBRANCH  16  20
ENDBRANCH   1  12
BRANCH   8  22
HETATM   22  N   UNL     1      10.624  14.708  27.833  0.00  0.00    -0.286 NA
HETATM   23  H   UNL     1      11.395  14.065  27.664  0.00  0.00     0.125 HD
HETATM   24  H   UNL     1      10.140  14.503  28.700  0.00  0.00     0.125 HD
ENDBRANCH   8  22
BRANCH   3  25
HETATM   25  N   UNL     1       6.831  15.202  22.409  0.00  0.00    -0.301 NA
HETATM   26  H   UNL     1       7.201  14.436  21.840  0.00  0.00     0.124 HD
HETATM   27  H   UNL     1       5.931  15.461  21.992  0.00  0.00     0.124 HD
ENDBRANCH   3  25
BRANCH   4  28
HETATM   28  C   UNL     1       4.254  14.939  24.104  0.00  0.00     0.265 C 
HETATM   29  O   UNL     1       3.758  15.826  23.413  0.00  0.00    -0.267 OA
HETATM   30  N   UNL     1       3.544  13.849  24.587  0.00  0.00    -0.322 N 
HETATM   31  H   UNL     1       4.099  13.168  25.097  0.00  0.00     0.169 HD
BRANCH  30  32
HETATM   32  C   UNL     1       2.162  13.590  24.461  0.00  0.00     0.035 A 
HETATM   33  C   UNL     1       1.229  13.790  25.486  0.00  0.00     0.031 A 
HETATM   34  C   UNL     1      -0.122  13.469  25.301  0.00  0.00     0.021 A 
HETATM   35  C   UNL     1      -0.556  12.950  24.089  0.00  0.00     0.011 A 
HETATM   36 BR   UNL     1      -2.372  12.488  23.856  0.00  0.00    -0.051 Br
HETATM   37  C   UNL     1       0.354  12.759  23.048  0.00  0.00     0.021 A 
HETATM   38  C   UNL     1       1.705  13.079  23.239  0.00  0.00     0.031 A 
ENDBRANCH  30  32
ENDBRANCH   4  28
TORSDOF 7
ENDMDL
MODEL 2
REMARK VINA RESULT:    -7.784      1.585      2.197
REMARK INTER + INTRA:         -11.757
REMARK INTER:                 -10.428
REMARK INTRA:                  -1.329
REMARK UNBOUND:                -1.243
REMARK  7 active torsions:
REMARK  status: ('A' for Active; 'I' for Inactive)
REMARK    1  A    between atoms: O_2  and  C_3 
REMARK    2  A    between atoms: C_6  and  C_7 
REMARK    3  A    between atoms: C_9  and  N_10 
REMARK    4  A    between atoms: C_11  and  C_12 
REMARK       I    between atoms: C_12  and  N_14 
REMARK    5  A    between atoms: N_14  and  C_15 
REMARK    6  A    between atoms: C_25  and  N_26 
REMARK    7  A    between atoms: C_31  and  O_32 
ROOT
HETATM    1  C   UNL     1       9.248  13.710  24.967  0.00  0.00     0.013 C 
HETATM    2  C   UNL     1       7.816  13.778  24.808  0.00  0.00     0.035 C 
HETATM    3  C   UNL     1       6.857  13.369  23.791  0.00  0.00     0.043 C 
HETATM    4  C   UNL     1       5.547  13.354  24.248  0.00  0.00     0.097 C 
HETATM    5  S   UNL     1       5.437  14.117  25.777  0.00  0.00    -0.062 SA
HETATM    6  C   UNL     1       7.114  14.343  25.871  0.00  0.00     0.113 C 
HETATM    7  N   UNL     1       7.620  14.971  26.946  0.00  0.00    -0.227 NA
HETATM    8  C   UNL     1       8.950  14.978  27.041  0.00  0.00     0.123 C 
HETATM    9  C   UNL     1       9.786  14.318  26.143  0.00  0.00     0.096 C 
HETATM   10  C   UNL     1      11.179  14.240  26.484  0.00  0.00     0.103 C 
HETATM   11  N   UNL     1      12.317  14.219  26.741  0.00  0.00    -0.191 NA
ENDROOT
BRANCH   1  12
HETATM   12  C   UNL     1      10.084  12.881  24.054  0.00  0.00    -0.021 C 
HETATM   13  C   UNL     1      10.191  11.491  24.183  0.00  0.00     0.015 C 
HETATM   14  C   UNL     1      10.725  10.712  23.153  0.00  0.00     0.040 C 
HETATM   15  C   UNL     1      11.253  11.305  21.998  0.00  0.00     0.101 C 
HETATM   16  C   UNL     1      11.378  12.690  21.954  0.00  0.00     0.102 C 
HETATM   17  C   UNL     1      10.712  13.445  22.930  0.00  0.00     0.052 C 
BRANCH  15  18
HETATM   18  O   UNL     1      11.578  10.544  20.906  0.00  0.00    -0.353 OA
HETATM   19  C   UNL     1      12.933  10.071  20.942  0.00  0.00     0.210 C 
ENDBRANCH  15  18
BRANCH  16  20
HETATM   20  O   UNL     1      12.002  13.484  21.035  0.00  0.00    -0.353 OA
HETATM   21  C   UNL     1      11.572  14.828  20.877  0.00  0.00     0.210 C 
ENDBRANCH  16  20
ENDBRANCH   1  12
BRANCH   8  22
HETATM   22  N   UNL     1       9.439  15.622  28.182  0.00  0.00    -0.286 NA
HETATM   23  H   UNL     1       9.362  16.627  28.041  0.00  0.00     0.125 HD
HETATM   24  H   UNL     1      10.377  15.344  28.446  0.00  0.00     0.125 HD
ENDBRANCH   8  22
BRANCH   3  25
HETATM   25  N   UNL     1       7.190  12.977  22.525  0.00  0.00    -0.301 NA
HETATM   26  H   UNL     1       6.971  13.630  21.767  0.00  0.00     0.124 HD
HETATM   27  H   UNL     1       8.165  12.693  22.385  0.00  0.00     0.124 HD
ENDBRANCH   3  25
BRANCH   4  28
HETATM   28  C   UNL     1       4.311  12.843  23.653  0.00  0.00     0.265 C 
HETATM   29  O   UNL     1       4.290  12.336  22.533  0.00  0.00    -0.267 OA
HETATM   30  N   UNL     1       3.186  13.001  24.449  0.00  0.00    -0.322 N 
HETATM   31  H   UNL     1       3.365  13.385  25.372  0.00  0.00     0.169 HD
BRANCH  30  32
HETATM   32  C   UNL     1       1.844  12.705  24.123  0.00  0.00     0.035 A 
HETATM   33  C   UNL     1       1.038  13.510  23.308  0.00  0.00     0.031 A 
HETATM   34  C   UNL     1      -0.299  13.172  23.064  0.00  0.00     0.021 A 
HETATM   35  C   UNL     1      -0.844  12.026  23.627  0.00  0.00     0.011 A 
HETATM   36 BR   UNL     1      -2.657  11.594  23.321  0.00  0.00    -0.051 Br
HETATM   37  C   UNL     1      -0.054  11.201  24.428  0.00  0.00     0.021 A 
HETATM   38  C   UNL     1       1.283  11.544  24.672  0.00  0.00     0.031 A 
ENDBRANCH  30  32
ENDBRANCH   4  28
TORSDOF 7
ENDMDL
MODEL 3
REMARK VINA RESULT:    -7.555      4.499      6.895
REMARK INTER + INTRA:         -11.448
REMARK INTER:                 -10.323
REMARK INTRA:                  -1.125
REMARK UNBOUND:                -1.243
REMARK  7 active torsions:
REMARK  status: ('A' for Active; 'I' for Inactive)
REMARK    1  A    between atoms: O_2  and  C_3 
REMARK    2  A    between atoms: C_6  and  C_7 
REMARK    3  A    between atoms: C_9  and  N_10 
REMARK    4  A    between atoms: C_11  and  C_12 
REMARK       I    between atoms: C_12  and  N_14 
REMARK    5  A    between atoms: N_14  and  C_15 
REMARK    6  A    between atoms: C_25  and  N_26 
REMARK    7  A    between atoms: C_31  and  O_32 
ROOT
HETATM    1  C   UNL     1       8.011  13.950  22.413  0.00  0.00     0.013 C 
HETATM    2  C   UNL     1       7.591  12.774  21.690  0.00  0.00     0.035 C 
HETATM    3  C   UNL     1       6.456  11.862  21.748  0.00  0.00     0.043 C 
HETATM    4  C   UNL     1       6.333  11.069  20.617  0.00  0.00     0.097 C 
HETATM    5  S   UNL     1       7.733  11.197  19.639  0.00  0.00    -0.062 SA
HETATM    6  C   UNL     1       8.421  12.376  20.645  0.00  0.00     0.113 C 
HETATM    7  N   UNL     1       9.638  12.856  20.336  0.00  0.00    -0.227 NA
HETATM    8  C   UNL     1      10.056  13.889  21.067  0.00  0.00     0.123 C 
HETATM    9  C   UNL     1       9.274  14.505  22.042  0.00  0.00     0.096 C 
HETATM   10  C   UNL     1       9.774  15.728  22.603  0.00  0.00     0.103 C 
HETATM   11  N   UNL     1      10.206  16.697  23.091  0.00  0.00    -0.191 NA
ENDROOT
BRANCH   1  12
HETATM   12  C   UNL     1       7.086  14.648  23.349  0.00  0.00    -0.021 C 
HETATM   13  C   UNL     1       5.986  15.392  22.908  0.00  0.00     0.015 C 
HETATM   14  C   UNL     1       4.976  15.778  23.794  0.00  0.00     0.040 C 
HETATM   15  C   UNL     1       5.079  15.511  25.166  0.00  0.00     0.101 C 
HETATM   16  C   UNL     1       6.271  14.990  25.660  0.00  0.00     0.102 C 
HETATM   17  C   UNL     1       7.203  14.487  24.741  0.00  0.00     0.052 C 
BRANCH  15  18
HETATM   18  O   UNL     1       4.006  15.695  25.997  0.00  0.00    -0.353 OA
HETATM   19  C   UNL     1       2.842  14.968  25.572  0.00  0.00     0.210 C 
ENDBRANCH  15  18
BRANCH  16  20
HETATM   20  O   UNL     1       6.677  14.804  26.950  0.00  0.00    -0.353 OA
HETATM   21  C   UNL     1       8.063  14.863  27.254  0.00  0.00     0.210 C 
ENDBRANCH  16  20
ENDBRANCH   1  12
BRANCH   8  22
HETATM   22  N   UNL     1      11.316  14.375  20.703  0.00  0.00    -0.286 NA
HETATM   23  H   UNL     1      11.863  14.513  21.550  0.00  0.00     0.125 HD
HETATM   24  H   UNL     1      11.290  15.207  20.126  0.00  0.00     0.125 HD
ENDBRANCH   8  22
BRANCH   3  25
HETATM   25  N   UNL     1       5.555  11.812  22.774  0.00  0.00    -0.301 NA
HETATM   26  H   UNL     1       5.146  10.897  22.985  0.00  0.00     0.124 HD
HETATM   27  H   UNL     1       5.870  12.198  23.669  0.00  0.00     0.124 HD
ENDBRANCH   3  25
BRANCH   4  28
HETATM   28  C   UNL     1       5.269  10.170  20.165  0.00  0.00     0.265 C 
HETATM   29  O   UNL     1       4.297  10.580  19.536  0.00  0.00    -0.267 OA
HETATM   30  N   UNL     1       5.451   8.843  20.525  0.00  0.00    -0.322 N 
HETATM   31  H   UNL     1       6.329   8.642  20.994  0.00  0.00     0.169 HD
BRANCH  30  32
HETATM   32  C   UNL     1       4.565   7.761  20.326  0.00  0.00     0.035 A 
HETATM   33  C   UNL     1       4.507   6.999  19.153  0.00  0.00     0.031 A 
HETATM   34  C   UNL     1       3.571   5.966  19.013  0.00  0.00     0.021 A 
HETATM   35  C   UNL     1       2.686   5.682  20.044  0.00  0.00     0.011 A 
HETATM   36 BR   UNL     1       1.405   4.310  19.836  0.00  0.00    -0.051 Br
HETATM   37  C   UNL     1       2.738   6.418  21.228  0.00  0.00     0.021 A 
HETATM   38  C   UNL     1       3.674   7.452  21.363  0.00  0.00     0.031 A 
ENDBRANCH  30  32
ENDBRANCH   4  28
TORSDOF 7
ENDMDL
MODEL 4
REMARK VINA RESULT:    -7.489      4.326      6.795
REMARK INTER + INTRA:         -11.359
REMARK INTER:                 -10.153
REMARK INTRA:                  -1.206
REMARK UNBOUND:                -1.243
REMARK  7 active torsions:
REMARK  status: ('A' for Active; 'I' for Inactive)
REMARK    1  A    between atoms: O_2  and  C_3 
REMARK    2  A    between atoms: C_6  and  C_7 
REMARK    3  A    between atoms: C_9  and  N_10 
REMARK    4  A    between atoms: C_11  and  C_12 
REMARK       I    between atoms: C_12  and  N_14 
REMARK    5  A    between atoms: N_14  and  C_15 
REMARK    6  A    between atoms: C_25  and  N_26 
REMARK    7  A    between atoms: C_31  and  O_32 
ROOT
HETATM    1  C   UNL     1       6.763  12.961  22.263  0.00  0.00     0.013 C 
HETATM    2  C   UNL     1       6.268  11.608  22.196  0.00  0.00     0.035 C 
HETATM    3  C   UNL     1       5.403  10.770  23.016  0.00  0.00     0.043 C 
HETATM    4  C   UNL     1       4.956   9.635  22.356  0.00  0.00     0.097 C 
HETATM    5  S   UNL     1       5.809   9.420  20.887  0.00  0.00    -0.062 SA
HETATM    6  C   UNL     1       6.659  10.874  21.078  0.00  0.00     0.113 C 
HETATM    7  N   UNL     1       7.562  11.220  20.145  0.00  0.00    -0.227 NA
HETATM    8  C   UNL     1       8.080  12.442  20.264  0.00  0.00     0.123 C 
HETATM    9  C   UNL     1       7.673  13.356  21.234  0.00  0.00     0.096 C 
HETATM   10  C   UNL     1       8.168  14.699  21.115  0.00  0.00     0.103 C 
HETATM   11  N   UNL     1       8.609  15.777  21.042  0.00  0.00    -0.191 NA
ENDROOT
BRANCH   1  12
HETATM   12  C   UNL     1       6.200  13.939  23.236  0.00  0.00    -0.021 C 
HETATM   13  C   UNL     1       5.041  14.680  22.975  0.00  0.00     0.015 C 
HETATM   14  C   UNL     1       4.371  15.352  24.002  0.00  0.00     0.040 C 
HETATM   15  C   UNL     1       4.887  15.380  25.304  0.00  0.00     0.101 C 
HETATM   16  C   UNL     1       6.157  14.858  25.533  0.00  0.00     0.102 C 
HETATM   17  C   UNL     1       6.739  14.073  24.527  0.00  0.00     0.052 C 
BRANCH  15  18
HETATM   18  O   UNL     1       4.133  15.851  26.346  0.00  0.00    -0.353 OA
HETATM   19  C   UNL     1       2.816  15.280  26.382  0.00  0.00     0.210 C 
ENDBRANCH  15  18
BRANCH  16  20
HETATM   20  O   UNL     1       6.939  14.914  26.651  0.00  0.00    -0.353 OA
HETATM   21  C   UNL     1       8.312  14.566  26.552  0.00  0.00     0.210 C 
ENDBRANCH  16  20
ENDBRANCH   1  12
BRANCH   8  22
HETATM   22  N   UNL     1       9.000  12.774  19.265  0.00  0.00    -0.286 NA
HETATM   23  H   UNL     1       8.863  13.751  19.014  0.00  0.00     0.125 HD
HETATM   24  H   UNL     1       8.972  12.166  18.455  0.00  0.00     0.125 HD
ENDBRANCH   8  22
BRANCH   3  25
HETATM   25  N   UNL     1       5.007  11.076  24.287  0.00  0.00    -0.301 NA
HETATM   26  H   UNL     1       4.000  11.177  24.446  0.00  0.00     0.124 HD
HETATM   27  H   UNL     1       5.353  10.457  25.027  0.00  0.00     0.124 HD
ENDBRANCH   3  25
BRANCH   4  28
HETATM   28  C   UNL     1       3.947   8.634  22.708  0.00  0.00     0.265 C 
HETATM   29  O   UNL     1       3.565   7.786  21.904  0.00  0.00    -0.267 OA
HETATM   30  N   UNL     1       3.458   8.745  24.001  0.00  0.00    -0.322 N 
HETATM   31  H   UNL     1       3.908   9.458  24.569  0.00  0.00     0.169 HD
BRANCH  30  32
HETATM   32  C   UNL     1       2.420   8.001  24.603  0.00  0.00     0.035 A 
HETATM   33  C   UNL     1       1.057   8.227  24.374  0.00  0.00     0.031 A 
HETATM   34  C   UNL     1       0.082   7.475  25.041  0.00  0.00     0.021 A 
HETATM   35  C   UNL     1       0.458   6.487  25.942  0.00  0.00     0.011 A 
HETATM   36 BR   UNL     1      -0.862   5.499  26.863  0.00  0.00    -0.051 Br
HETATM   37  C   UNL     1       1.811   6.234  26.172  0.00  0.00     0.021 A 
HETATM   38  C   UNL     1       2.782   6.990  25.504  0.00  0.00     0.031 A 
ENDBRANCH  30  32
ENDBRANCH   4  28
TORSDOF 7
ENDMDL
MODEL 5
REMARK VINA RESULT:    -7.407      4.869      6.049
REMARK INTER + INTRA:         -11.248
REMARK INTER:                 -10.057
REMARK INTRA:                  -1.191
REMARK UNBOUND:                -1.243
REMARK  7 active torsions:
REMARK  status: ('A' for Active; 'I' for Inactive)
REMARK    1  A    between atoms: O_2  and  C_3 
REMARK    2  A    between atoms: C_6  and  C_7 
REMARK    3  A    between atoms: C_9  and  N_10 
REMARK    4  A    between atoms: C_11  and  C_12 
REMARK       I    between atoms: C_12  and  N_14 
REMARK    5  A    between atoms: N_14  and  C_15 
REMARK    6  A    between atoms: C_25  and  N_26 
REMARK    7  A    between atoms: C_31  and  O_32 
ROOT
HETATM    1  C   UNL     1       6.944  12.810  21.643  0.00  0.00     0.013 C 
HETATM    2  C   UNL     1       5.892  11.872  21.950  0.00  0.00     0.035 C 
HETATM    3  C   UNL     1       5.588  10.492  21.597  0.00  0.00     0.043 C 
HETATM    4  C   UNL     1       4.626   9.918  22.415  0.00  0.00     0.097 C 
HETATM    5  S   UNL     1       3.877  11.110  23.389  0.00  0.00    -0.062 SA
HETATM    6  C   UNL     1       4.903  12.332  22.817  0.00  0.00     0.113 C 
HETATM    7  N   UNL     1       4.727  13.585  23.269  0.00  0.00    -0.227 NA
HETATM    8  C   UNL     1       5.659  14.468  22.909  0.00  0.00     0.123 C 
HETATM    9  C   UNL     1       6.796  14.127  22.178  0.00  0.00     0.096 C 
HETATM   10  C   UNL     1       7.810  15.135  22.040  0.00  0.00     0.103 C 
HETATM   11  N   UNL     1       8.610  15.971  21.891  0.00  0.00    -0.191 NA
ENDROOT
BRANCH   1  12
HETATM   12  C   UNL     1       8.199  12.367  20.975  0.00  0.00    -0.021 C 
HETATM   13  C   UNL     1       8.539  12.755  19.674  0.00  0.00     0.015 C 
HETATM   14  C   UNL     1       9.838  12.580  19.188  0.00  0.00     0.040 C 
HETATM   15  C   UNL     1      10.815  11.929  19.953  0.00  0.00     0.101 C 
HETATM   16  C   UNL     1      10.436  11.322  21.146  0.00  0.00     0.102 C 
HETATM   17  C   UNL     1       9.173  11.630  21.673  0.00  0.00     0.052 C 
BRANCH  15  18
HETATM   18  O   UNL     1      12.130  11.946  19.571  0.00  0.00    -0.353 OA
HETATM   19  C   UNL     1      12.933  12.820  20.381  0.00  0.00     0.210 C 
ENDBRANCH  15  18
BRANCH  16  20
HETATM   20  O   UNL     1      11.144  10.499  21.974  0.00  0.00    -0.353 OA
HETATM   21  C   UNL     1      11.193  10.790  23.363  0.00  0.00     0.210 C 
ENDBRANCH  16  20
ENDBRANCH   1  12
BRANCH   8  22
HETATM   22  N   UNL     1       5.455  15.755  23.415  0.00  0.00    -0.286 NA
HETATM   23  H   UNL     1       4.456  15.888  23.562  0.00  0.00     0.125 HD
HETATM   24  H   UNL     1       5.859  16.493  22.850  0.00  0.00     0.125 HD
ENDBRANCH   8  22
BRANCH   3  25
HETATM   25  N   UNL     1       6.213   9.790  20.606  0.00  0.00    -0.301 NA
HETATM   26  H   UNL     1       5.836   8.863  20.388  0.00  0.00     0.124 HD
HETATM   27  H   UNL     1       6.317  10.275  19.709  0.00  0.00     0.124 HD
ENDBRANCH   3  25
BRANCH   4  28
HETATM   28  C   UNL     1       4.156   8.537  22.550  0.00  0.00     0.265 C 
HETATM   29  O   UNL     1       4.091   7.978  23.643  0.00  0.00    -0.267 OA
HETATM   30  N   UNL     1       3.819   7.928  21.351  0.00  0.00    -0.322 N 
HETATM   31  H   UNL     1       3.870   8.531  20.535  0.00  0.00     0.169 HD
BRANCH  30  32
HETATM   32  C   UNL     1       3.431   6.587  21.139  0.00  0.00     0.035 A 
HETATM   33  C   UNL     1       4.282   5.487  21.308  0.00  0.00     0.031 A 
HETATM   34  C   UNL     1       3.837   4.187  21.037  0.00  0.00     0.021 A 
HETATM   35  C   UNL     1       2.538   3.971  20.597  0.00  0.00     0.011 A 
HETATM   36 BR   UNL     1       1.955   2.219  20.201  0.00  0.00    -0.051 Br
HETATM   37  C   UNL     1       1.669   5.051  20.438  0.00  0.00     0.021 A 
HETATM   38  C   UNL     1       2.119   6.350  20.708  0.00  0.00     0.031 A 
ENDBRANCH  30  32
ENDBRANCH   4  28
TORSDOF 7
ENDMDL
MODEL 6
REMARK VINA RESULT:    -7.381      5.572      6.885
REMARK INTER + INTRA:         -11.213
REMARK INTER:                  -9.938
REMARK INTRA:                  -1.275
REMARK UNBOUND:                -1.243
REMARK  7 active torsions:
REMARK  status: ('A' for Active; 'I' for Inactive)
REMARK    1  A    between atoms: O_2  and  C_3 
REMARK    2  A    between atoms: C_6  and  C_7 
REMARK    3  A    between atoms: C_9  and  N_10 
REMARK    4  A    between atoms: C_11  and  C_12 
REMARK       I    between atoms: C_12  and  N_14 
REMARK    5  A    between atoms: N_14  and  C_15 
REMARK    6  A    between atoms: C_25  and  N_26 
REMARK    7  A    between atoms: C_31  and  O_32 
ROOT
HETATM    1  C   UNL     1       7.155  11.536  22.209  0.00  0.00     0.013 C 
HETATM    2  C   UNL     1       6.188  10.625  21.646  0.00  0.00     0.035 C 
HETATM    3  C   UNL     1       5.940  10.046  20.332  0.00  0.00     0.043 C 
HETATM    4  C   UNL     1       5.081   8.958  20.367  0.00  0.00     0.097 C 
HETATM    5  S   UNL     1       4.341   8.827  21.906  0.00  0.00    -0.062 SA
HETATM    6  C   UNL     1       5.245  10.116  22.535  0.00  0.00     0.113 C 
HETATM    7  N   UNL     1       5.030  10.493  23.807  0.00  0.00    -0.227 NA
HETATM    8  C   UNL     1       5.876  11.400  24.294  0.00  0.00     0.123 C 
HETATM    9  C   UNL     1       6.971  11.887  23.582  0.00  0.00     0.096 C 
HETATM   10  C   UNL     1       7.909  12.702  24.302  0.00  0.00     0.103 C 
HETATM   11  N   UNL     1       8.644  13.401  24.879  0.00  0.00    -0.191 NA
ENDROOT
BRANCH   1  12
HETATM   12  C   UNL     1       8.378  11.923  21.452  0.00  0.00    -0.021 C 
HETATM   13  C   UNL     1       8.481  13.130  20.751  0.00  0.00     0.015 C 
HETATM   14  C   UNL     1       9.721  13.602  20.311  0.00  0.00     0.040 C 
HETATM   15  C   UNL     1      10.885  12.840  20.477  0.00  0.00     0.101 C 
HETATM   16  C   UNL     1      10.770  11.536  20.950  0.00  0.00     0.102 C 
HETATM   17  C   UNL     1       9.547  11.143  21.511  0.00  0.00     0.052 C 
BRANCH  15  18
HETATM   18  O   UNL     1      12.119  13.386  20.242  0.00  0.00    -0.353 OA
HETATM   19  C   UNL     1      12.344  14.593  20.987  0.00  0.00     0.210 C 
ENDBRANCH  15  18
BRANCH  16  20
HETATM   20  O   UNL     1      11.711  10.551  21.040  0.00  0.00    -0.353 OA
HETATM   21  C   UNL     1      12.570  10.517  22.170  0.00  0.00     0.210 C 
ENDBRANCH  16  20
ENDBRANCH   1  12
BRANCH   8  22
HETATM   22  N   UNL     1       5.636  11.751  25.626  0.00  0.00    -0.286 NA
HETATM   23  H   UNL     1       5.524  10.897  26.168  0.00  0.00     0.125 HD
HETATM   24  H   UNL     1       4.858  12.389  25.754  0.00  0.00     0.125 HD
ENDBRANCH   8  22
BRANCH   3  25
HETATM   25  N   UNL     1       6.527  10.473  19.174  0.00  0.00    -0.301 NA
HETATM   26  H   UNL     1       7.544  10.375  19.109  0.00  0.00     0.124 HD
HETATM   27  H   UNL     1       6.145  10.084  18.307  0.00  0.00     0.124 HD
ENDBRANCH   3  25
BRANCH   4  28
HETATM   28  C   UNL     1       4.707   7.975  19.348  0.00  0.00     0.265 C 
HETATM   29  O   UNL     1       5.099   8.063  18.186  0.00  0.00    -0.267 OA
HETATM   30  N   UNL     1       3.871   6.968  19.806  0.00  0.00    -0.322 N 
HETATM   31  H   UNL     1       3.676   6.992  20.803  0.00  0.00     0.169 HD
BRANCH  30  32
HETATM   32  C   UNL     1       3.261   5.938  19.055  0.00  0.00     0.035 A 
HETATM   33  C   UNL     1       2.156   6.127  18.216  0.00  0.00     0.031 A 
HETATM   34  C   UNL     1       1.579   5.048  17.535  0.00  0.00     0.021 A 
HETATM   35  C   UNL     1       2.102   3.770  17.681  0.00  0.00     0.011 A 
HETATM   36 BR   UNL     1       1.298   2.314  16.786  0.00  0.00    -0.051 Br
HETATM   37  C   UNL     1       3.213   3.563  18.499  0.00  0.00     0.021 A 
HETATM   38  C   UNL     1       3.786   4.645  19.180  0.00  0.00     0.031 A 
ENDBRANCH  30  32
ENDBRANCH   4  28
TORSDOF 7
ENDMDL
MODEL 7
REMARK VINA RESULT:    -7.300      5.077      8.890
REMARK INTER + INTRA:         -11.103
REMARK INTER:                  -9.725
REMARK INTRA:                  -1.378
REMARK UNBOUND:                -1.243
REMARK  7 active torsions:
REMARK  status: ('A' for Active; 'I' for Inactive)
REMARK    1  A    between atoms: O_2  and  C_3 
REMARK    2  A    between atoms: C_6  and  C_7 
REMARK    3  A    between atoms: C_9  and  N_10 
REMARK    4  A    between atoms: C_11  and  C_12 
REMARK       I    between atoms: C_12  and  N_14 
REMARK    5  A    between atoms: N_14  and  C_15 
REMARK    6  A    between atoms: C_25  and  N_26 
REMARK    7  A    between atoms: C_31  and  O_32 
ROOT
HETATM    1  C   UNL     1       3.460  12.780  24.958  0.00  0.00     0.013 C 
HETATM    2  C   UNL     1       4.061  11.523  24.583  0.00  0.00     0.035 C 
HETATM    3  C   UNL     1       3.577  10.242  24.084  0.00  0.00     0.043 C 
HETATM    4  C   UNL     1       4.582   9.447  23.554  0.00  0.00     0.097 C 
HETATM    5  S   UNL     1       6.122  10.095  23.931  0.00  0.00    -0.062 SA
HETATM    6  C   UNL     1       5.450  11.463  24.672  0.00  0.00     0.113 C 
HETATM    7  N   UNL     1       6.276  12.374  25.214  0.00  0.00    -0.227 NA
HETATM    8  C   UNL     1       5.701  13.499  25.638  0.00  0.00     0.123 C 
HETATM    9  C   UNL     1       4.346  13.777  25.472  0.00  0.00     0.096 C 
HETATM   10  C   UNL     1       3.908  15.107  25.791  0.00  0.00     0.103 C 
HETATM   11  N   UNL     1       3.548  16.175  26.095  0.00  0.00    -0.191 NA
ENDROOT
BRANCH   1  12
HETATM   12  C   UNL     1       2.036  13.078  24.638  0.00  0.00    -0.021 C 
HETATM   13  C   UNL     1       1.615  13.467  23.362  0.00  0.00     0.015 C 
HETATM   14  C   UNL     1       0.261  13.446  23.014  0.00  0.00     0.040 C 
HETATM   15  C   UNL     1      -0.722  13.123  23.958  0.00  0.00     0.101 C 
HETATM   16  C   UNL     1      -0.348  12.969  25.289  0.00  0.00     0.102 C 
HETATM   17  C   UNL     1       1.018  12.857  25.583  0.00  0.00     0.052 C 
BRANCH  15  18
HETATM   18  O   UNL     1      -2.016  12.895  23.571  0.00  0.00    -0.353 OA
HETATM   19  C   UNL     1      -2.232  11.550  23.114  0.00  0.00     0.210 C 
ENDBRANCH  15  18
BRANCH  16  20
HETATM   20  O   UNL     1      -1.122  12.824  26.405  0.00  0.00    -0.353 OA
HETATM   21  C   UNL     1      -1.633  11.539  26.728  0.00  0.00     0.210 C 
ENDBRANCH  16  20
ENDBRANCH   1  12
BRANCH   8  22
HETATM   22  N   UNL     1       6.594  14.431  26.175  0.00  0.00    -0.286 NA
HETATM   23  H   UNL     1       6.929  14.076  27.069  0.00  0.00     0.125 HD
HETATM   24  H   UNL     1       6.219  15.369  26.254  0.00  0.00     0.125 HD
ENDBRANCH   8  22
BRANCH   3  25
HETATM   25  N   UNL     1       2.265   9.861  24.073  0.00  0.00    -0.301 NA
HETATM   26  H   UNL     1       1.765   9.954  23.184  0.00  0.00     0.124 HD
HETATM   27  H   UNL     1       2.069   8.915  24.414  0.00  0.00     0.124 HD
ENDBRANCH   3  25
BRANCH   4  28
HETATM   28  C   UNL     1       4.540   8.198  22.790  0.00  0.00     0.265 C 
HETATM   29  O   UNL     1       5.378   7.313  22.945  0.00  0.00    -0.267 OA
HETATM   30  N   UNL     1       3.497   8.120  21.879  0.00  0.00    -0.322 N 
HETATM   31  H   UNL     1       2.849   8.903  21.902  0.00  0.00     0.169 HD
BRANCH  30  32
HETATM   32  C   UNL     1       3.243   7.101  20.936  0.00  0.00     0.035 A 
HETATM   33  C   UNL     1       4.053   6.843  19.823  0.00  0.00     0.031 A 
HETATM   34  C   UNL     1       3.714   5.840  18.905  0.00  0.00     0.021 A 
HETATM   35  C   UNL     1       2.564   5.084  19.091  0.00  0.00     0.011 A 
HETATM   36 BR   UNL     1       2.095   3.756  17.833  0.00  0.00    -0.051 Br
HETATM   37  C   UNL     1       1.753   5.313  20.202  0.00  0.00     0.021 A 
HETATM   38  C   UNL     1       2.095   6.319  21.117  0.00  0.00     0.031 A 
ENDBRANCH  30  32
ENDBRANCH   4  28
TORSDOF 7
ENDMDL
MODEL 8
REMARK VINA RESULT:    -7.223      4.602      6.094
REMARK INTER + INTRA:         -11.000
REMARK INTER:                  -9.827
REMARK INTRA:                  -1.173
REMARK UNBOUND:                -1.243
REMARK  7 active torsions:
REMARK  status: ('A' for Active; 'I' for Inactive)
REMARK    1  A    between atoms: O_2  and  C_3 
REMARK    2  A    between atoms: C_6  and  C_7 
REMARK    3  A    between atoms: C_9  and  N_10 
REMARK    4  A    between atoms: C_11  and  C_12 
REMARK       I    between atoms: C_12  and  N_14 
REMARK    5  A    between atoms: N_14  and  C_15 
REMARK    6  A    between atoms: C_25  and  N_26 
REMARK    7  A    between atoms: C_31  and  O_32 
ROOT
HETATM    1  C   UNL     1       7.811  12.830  23.187  0.00  0.00     0.013 C 
HETATM    2  C   UNL     1       6.855  12.199  22.309  0.00  0.00     0.035 C 
HETATM    3  C   UNL     1       6.914  11.216  21.235  0.00  0.00     0.043 C 
HETATM    4  C   UNL     1       5.675  10.681  20.915  0.00  0.00     0.097 C 
HETATM    5  S   UNL     1       4.423  11.568  21.675  0.00  0.00    -0.062 SA
HETATM    6  C   UNL     1       5.523  12.557  22.503  0.00  0.00     0.113 C 
HETATM    7  N   UNL     1       5.044  13.531  23.296  0.00  0.00    -0.227 NA
HETATM    8  C   UNL     1       5.946  14.169  24.041  0.00  0.00     0.123 C 
HETATM    9  C   UNL     1       7.294  13.819  24.079  0.00  0.00     0.096 C 
HETATM   10  C   UNL     1       8.106  14.457  25.077  0.00  0.00     0.103 C 
HETATM   11  N   UNL     1       8.773  15.011  25.858  0.00  0.00    -0.191 NA
ENDROOT
BRANCH   1  12
HETATM   12  C   UNL     1       9.211  12.331  23.285  0.00  0.00    -0.021 C 
HETATM   13  C   UNL     1       9.541  11.134  23.930  0.00  0.00     0.015 C 
HETATM   14  C   UNL     1      10.795  10.542  23.751  0.00  0.00     0.040 C 
HETATM   15  C   UNL     1      11.790  11.175  22.994  0.00  0.00     0.101 C 
HETATM   16  C   UNL     1      11.568  12.474  22.546  0.00  0.00     0.102 C 
HETATM   17  C   UNL     1      10.263  12.983  22.618  0.00  0.00     0.052 C 
BRANCH  15  18
HETATM   18  O   UNL     1      12.933  10.507  22.642  0.00  0.00    -0.353 OA
HETATM   19  C   UNL     1      12.916  10.054  21.279  0.00  0.00     0.210 C 
ENDBRANCH  15  18
BRANCH  16  20
HETATM   20  O   UNL     1      12.424  13.352  21.948  0.00  0.00    -0.353 OA
HETATM   21  C   UNL     1      12.065  13.926  20.699  0.00  0.00     0.210 C 
ENDBRANCH  16  20
ENDBRANCH   1  12
BRANCH   8  22
HETATM   22  N   UNL     1       5.408  15.160  24.868  0.00  0.00    -0.286 NA
HETATM   23  H   UNL     1       4.882  15.811  24.288  0.00  0.00     0.125 HD
HETATM   24  H   UNL     1       6.091  15.633  25.448  0.00  0.00     0.125 HD
ENDBRANCH   8  22
BRANCH   3  25
HETATM   25  N   UNL     1       8.065  10.801  20.627  0.00  0.00    -0.301 NA
HETATM   26  H   UNL     1       8.226  11.128  19.670  0.00  0.00     0.124 HD
HETATM   27  H   UNL     1       8.934  10.979  21.140  0.00  0.00     0.124 HD
ENDBRANCH   3  25
BRANCH   4  28
HETATM   28  C   UNL     1       5.287   9.558  20.058  0.00  0.00     0.265 C 
HETATM   29  O   UNL     1       5.202   9.672  18.837  0.00  0.00    -0.267 OA
HETATM   30  N   UNL     1       5.013   8.384  20.744  0.00  0.00    -0.322 N 
HETATM   31  H   UNL     1       5.181   8.423  21.745  0.00  0.00     0.169 HD
BRANCH  30  32
HETATM   32  C   UNL     1       4.525   7.167  20.220  0.00  0.00     0.035 A 
HETATM   33  C   UNL     1       3.170   6.814  20.187  0.00  0.00     0.031 A 
HETATM   34  C   UNL     1       2.764   5.569  19.690  0.00  0.00     0.021 A 
HETATM   35  C   UNL     1       3.707   4.666  19.216  0.00  0.00     0.011 A 
HETATM   36 BR   UNL     1       3.156   2.976  18.577  0.00  0.00    -0.051 Br
HETATM   37  C   UNL     1       5.060   5.005  19.224  0.00  0.00     0.021 A 
HETATM   38  C   UNL     1       5.461   6.250  19.725  0.00  0.00     0.031 A 
ENDBRANCH  30  32
ENDBRANCH   4  28
TORSDOF 7
ENDMDL
MODEL 9
REMARK VINA RESULT:    -7.016      4.428      6.455
REMARK INTER + INTRA:         -10.719
REMARK INTER:                  -9.477
REMARK INTRA:                  -1.243
REMARK UNBOUND:                -1.243
REMARK  7 active torsions:
REMARK  status: ('A' for Active; 'I' for Inactive)
REMARK    1  A    between atoms: O_2  and  C_3 
REMARK    2  A    between atoms: C_6  and  C_7 
REMARK    3  A    between atoms: C_9  and  N_10 
REMARK    4  A    between atoms: C_11  and  C_12 
REMARK       I    between atoms: C_12  and  N_14 
REMARK    5  A    between atoms: N_14  and  C_15 
REMARK    6  A    between atoms: C_25  and  N_26 
REMARK    7  A    between atoms: C_31  and  O_32 
ROOT
HETATM    1  C   UNL     1       7.638  12.251  22.005  0.00  0.00     0.013 C 
HETATM    2  C   UNL     1       6.855  11.059  21.787  0.00  0.00     0.035 C 
HETATM    3  C   UNL     1       6.202  10.069  22.634  0.00  0.00     0.043 C 
HETATM    4  C   UNL     1       5.285   9.284  21.951  0.00  0.00     0.097 C 
HETATM    5  S   UNL     1       5.432   9.523  20.262  0.00  0.00    -0.062 SA
HETATM    6  C   UNL     1       6.603  10.733  20.457  0.00  0.00     0.113 C 
HETATM    7  N   UNL     1       7.132  11.300  19.360  0.00  0.00    -0.227 NA
HETATM    8  C   UNL     1       7.925  12.350  19.574  0.00  0.00     0.123 C 
HETATM    9  C   UNL     1       8.147  12.897  20.836  0.00  0.00     0.096 C 
HETATM   10  C   UNL     1       8.856  14.145  20.892  0.00  0.00     0.103 C 
HETATM   11  N   UNL     1       9.473  15.134  20.936  0.00  0.00    -0.191 NA
ENDROOT
BRANCH   1  12
HETATM   12  C   UNL     1       7.736  12.870  23.356  0.00  0.00    -0.021 C 
HETATM   13  C   UNL     1       8.769  12.569  24.251  0.00  0.00     0.015 C 
HETATM   14  C   UNL     1       9.008  13.372  25.370  0.00  0.00     0.040 C 
HETATM   15  C   UNL     1       8.167  14.449  25.680  0.00  0.00     0.101 C 
HETATM   16  C   UNL     1       6.998  14.619  24.943  0.00  0.00     0.102 C 
HETATM   17  C   UNL     1       6.856  13.893  23.752  0.00  0.00     0.052 C 
BRANCH  15  18
HETATM   18  O   UNL     1       8.518  15.357  26.643  0.00  0.00    -0.353 OA
HETATM   19  C   UNL     1       9.849  15.153  27.141  0.00  0.00     0.210 C 
ENDBRANCH  15  18
BRANCH  16  20
HETATM   20  O   UNL     1       5.949  15.469  25.149  0.00  0.00    -0.353 OA
HETATM   21  C   UNL     1       5.058  15.739  24.077  0.00  0.00     0.210 C 
ENDBRANCH  16  20
ENDBRANCH   1  12
BRANCH   8  22
HETATM   22  N   UNL     1       8.440  12.927  18.409  0.00  0.00    -0.286 NA
HETATM   23  H   UNL     1       8.014  12.466  17.607  0.00  0.00     0.125 HD
HETATM   24  H   UNL     1       9.452  12.926  18.357  0.00  0.00     0.125 HD
ENDBRANCH   8  22
BRANCH   3  25
HETATM   25  N   UNL     1       6.409   9.943  23.979  0.00  0.00    -0.301 NA
HETATM   26  H   UNL     1       5.927  10.613  24.585  0.00  0.00     0.124 HD
HETATM   27  H   UNL     1       6.228   9.016  24.376  0.00  0.00     0.124 HD
ENDBRANCH   3  25
BRANCH   4  28
HETATM   28  C   UNL     1       4.286   8.320  22.416  0.00  0.00     0.265 C 
HETATM   29  O   UNL     1       3.944   7.358  21.732  0.00  0.00    -0.267 OA
HETATM   30  N   UNL     1       3.759   8.602  23.668  0.00  0.00    -0.322 N 
HETATM   31  H   UNL     1       4.178   9.398  24.140  0.00  0.00     0.169 HD
BRANCH  30  32
HETATM   32  C   UNL     1       2.718   7.927  24.343  0.00  0.00     0.035 A 
HETATM   33  C   UNL     1       1.358   8.213  24.174  0.00  0.00     0.031 A 
HETATM   34  C   UNL     1       0.383   7.528  24.912  0.00  0.00     0.021 A 
HETATM   35  C   UNL     1       0.757   6.549  25.823  0.00  0.00     0.011 A 
HETATM   36 BR   UNL     1      -0.559   5.653  26.838  0.00  0.00    -0.051 Br
HETATM   37  C   UNL     1       2.106   6.237  25.994  0.00  0.00     0.021 A 
HETATM   38  C   UNL     1       3.078   6.926  25.255  0.00  0.00     0.031 A 
ENDBRANCH  30  32
ENDBRANCH   4  28
TORSDOF 7
ENDMDL
