MODEL 1
REMARK VINA RESULT:    -7.871      0.000      0.000
REMARK INTER + INTRA:          -9.495
REMARK INTER:                  -8.188
REMARK INTRA:                  -1.307
REMARK UNBOUND:                -0.474
REMARK  3 active torsions:
REMARK  status: ('A' for Active; 'I' for Inactive)
REMARK    1  A    between atoms: C_9  and  C_13 
REMARK    2  A    between atoms: C_10  and  O_12 
REMARK    3  A    between atoms: N_17  and  C_18 
ROOT
HETATM    1  N   UNL     1       8.669  12.910  20.456  0.00  0.00    -0.277 N 
HETATM    2  H   UNL     1       8.812  12.036  19.967  0.00  0.00     0.189 HD
HETATM    3  N   UNL     1       9.604  13.872  20.332  0.00  0.00    -0.179 NA
HETATM    4  C   UNL     1       9.133  14.872  21.085  0.00  0.00     0.063 A 
HETATM    5  C   UNL     1       9.933  16.105  21.305  0.00  0.00     0.073 C 
HETATM    6  C   UNL     1       7.881  14.549  21.675  0.00  0.00     0.019 A 
HETATM    7  C   UNL     1       7.636  13.241  21.292  0.00  0.00     0.065 A 
HETATM    8  C   UNL     1       6.962  15.199  22.517  0.00  0.00     0.032 C 
HETATM    9  C   UNL     1       5.915  14.478  23.121  0.00  0.00     0.026 C 
HETATM   10  C   UNL     1       5.714  13.148  22.701  0.00  0.00     0.080 C 
HETATM   11  C   UNL     1       6.530  12.521  21.746  0.00  0.00     0.069 C 
ENDROOT
BRANCH   9  12
HETATM   12  C   UNL     1       5.096  15.127  24.170  0.00  0.00     0.068 A 
HETATM   13  C   UNL     1       3.889  15.801  24.060  0.00  0.00     0.053 A 
HETATM   14  C   UNL     1       3.518  16.156  25.364  0.00  0.00     0.141 A 
HETATM   15  N   UNL     1       4.410  15.764  26.266  0.00  0.00    -0.183 NA
HETATM   16  N   UNL     1       5.361  15.114  25.546  0.00  0.00    -0.257 N 
BRANCH  16  17
HETATM   17  C   UNL     1       6.432  14.375  26.254  0.00  0.00     0.155 A 
HETATM   18  C   UNL     1       6.302  12.862  26.209  0.00  0.00     0.000 A 
HETATM   19  C   UNL     1       7.323  12.044  25.900  0.00  0.00    -0.025 A 
HETATM   20  C   UNL     1       8.687  12.538  25.504  0.00  0.00     0.054 A 
HETATM   21  C   UNL     1       8.807  14.037  25.490  0.00  0.00    -0.025 A 
HETATM   22  C   UNL     1       7.801  14.860  25.825  0.00  0.00     0.000 A 
ENDBRANCH  16  17
ENDBRANCH   9  12
BRANCH  10  23
HETATM   23  O   UNL     1       4.735  12.337  23.214  0.00  0.00    -0.360 OA
HETATM   24  H   UNL     1       5.165  11.577  23.638  0.00  0.00     0.217 HD
ENDBRANCH  10  23
TORSDOF 3
ENDMDL
MODEL 2
REMARK VINA RESULT:    -7.846      2.038      5.631
REMARK INTER + INTRA:          -9.466
REMARK INTER:                  -8.123
REMARK INTRA:                  -1.343
REMARK UNBOUND:                -0.474
REMARK  3 active torsions:
REMARK  status: ('A' for Active; 'I' for Inactive)
REMARK    1  A    between atoms: C_9  and  C_13 
REMARK    2  A    between atoms: C_10  and  O_12 
REMARK    3  A    between atoms: N_17  and  C_18 
ROOT
HETATM    1  N   UNL     1       2.756  14.884  26.398  0.00  0.00    -0.277 N 
HETATM    2  H   UNL     1       2.674  15.027  27.396  0.00  0.00     0.189 HD
HETATM    3  N   UNL     1       1.648  14.547  25.708  0.00  0.00    -0.179 NA
HETATM    4  C   UNL     1       2.083  14.427  24.449  0.00  0.00     0.063 A 
HETATM    5  C   UNL     1       1.176  13.955  23.370  0.00  0.00     0.073 C 
HETATM    6  C   UNL     1       3.472  14.708  24.337  0.00  0.00     0.019 A 
HETATM    7  C   UNL     1       3.891  14.944  25.635  0.00  0.00     0.065 A 
HETATM    8  C   UNL     1       4.415  14.742  23.295  0.00  0.00     0.032 C 
HETATM    9  C   UNL     1       5.791  14.821  23.582  0.00  0.00     0.026 C 
HETATM   10  C   UNL     1       6.163  15.055  24.921  0.00  0.00     0.080 C 
HETATM   11  C   UNL     1       5.228  15.173  25.961  0.00  0.00     0.069 C 
ENDROOT
BRANCH   9  12
HETATM   12  C   UNL     1       6.773  14.636  22.490  0.00  0.00     0.068 A 
HETATM   13  C   UNL     1       7.591  15.567  21.868  0.00  0.00     0.053 A 
HETATM   14  C   UNL     1       8.373  14.851  20.950  0.00  0.00     0.141 A 
HETATM   15  N   UNL     1       8.088  13.554  20.950  0.00  0.00    -0.183 NA
HETATM   16  N   UNL     1       7.131  13.414  21.905  0.00  0.00    -0.257 N 
BRANCH  16  17
HETATM   17  C   UNL     1       6.701  12.056  22.310  0.00  0.00     0.155 A 
HETATM   18  C   UNL     1       6.875  11.745  23.788  0.00  0.00     0.000 A 
HETATM   19  C   UNL     1       5.912  11.186  24.541  0.00  0.00    -0.025 A 
HETATM   20  C   UNL     1       4.538  10.864  24.020  0.00  0.00     0.054 A 
HETATM   21  C   UNL     1       4.341  11.223  22.573  0.00  0.00    -0.025 A 
HETATM   22  C   UNL     1       5.306  11.755  21.807  0.00  0.00     0.000 A 
ENDBRANCH  16  17
ENDBRANCH   9  12
BRANCH  10  23
HETATM   23  O   UNL     1       7.468  15.145  25.333  0.00  0.00    -0.360 OA
HETATM   24  H   UNL     1       8.011  14.613  24.729  0.00  0.00     0.217 HD
ENDBRANCH  10  23
TORSDOF 3
ENDMDL
MODEL 3
REMARK VINA RESULT:    -7.813      3.121      5.861
REMARK INTER + INTRA:          -9.428
REMARK INTER:                  -8.237
REMARK INTRA:                  -1.191
REMARK UNBOUND:                -0.474
REMARK  3 active torsions:
REMARK  status: ('A' for Active; 'I' for Inactive)
REMARK    1  A    between atoms: C_9  and  C_13 
REMARK    2  A    between atoms: C_10  and  O_12 
REMARK    3  A    between atoms: N_17  and  C_18 
ROOT
HETATM    1  N   UNL     1       0.693  11.456  24.837  0.00  0.00    -0.277 N 
HETATM    2  H   UNL     1       0.326  10.914  25.608  0.00  0.00     0.189 HD
HETATM    3  N   UNL     1      -0.174  11.940  23.926  0.00  0.00    -0.179 NA
HETATM    4  C   UNL     1       0.608  12.588  23.056  0.00  0.00     0.063 A 
HETATM    5  C   UNL     1       0.040  13.187  21.820  0.00  0.00     0.073 C 
HETATM    6  C   UNL     1       1.978  12.531  23.428  0.00  0.00     0.019 A 
HETATM    7  C   UNL     1       2.005  11.735  24.561  0.00  0.00     0.065 A 
HETATM    8  C   UNL     1       3.188  13.023  22.908  0.00  0.00     0.032 C 
HETATM    9  C   UNL     1       4.419  12.561  23.408  0.00  0.00     0.026 C 
HETATM   10  C   UNL     1       4.389  11.747  24.560  0.00  0.00     0.080 C 
HETATM   11  C   UNL     1       3.194  11.363  25.188  0.00  0.00     0.069 C 
ENDROOT
BRANCH   9  12
HETATM   12  C   UNL     1       5.671  12.921  22.706  0.00  0.00     0.068 A 
HETATM   13  C   UNL     1       6.319  12.275  21.664  0.00  0.00     0.053 A 
HETATM   14  C   UNL     1       7.423  13.074  21.332  0.00  0.00     0.141 A 
HETATM   15  N   UNL     1       7.511  14.154  22.100  0.00  0.00    -0.183 NA
HETATM   16  N   UNL     1       6.431  14.079  22.922  0.00  0.00    -0.257 N 
BRANCH  16  17
HETATM   17  C   UNL     1       6.104  15.226  23.800  0.00  0.00     0.155 A 
HETATM   18  C   UNL     1       4.827  15.965  23.435  0.00  0.00     0.000 A 
HETATM   19  C   UNL     1       3.885  16.297  24.335  0.00  0.00    -0.025 A 
HETATM   20  C   UNL     1       3.961  15.918  25.788  0.00  0.00     0.054 A 
HETATM   21  C   UNL     1       5.195  15.134  26.145  0.00  0.00    -0.025 A 
HETATM   22  C   UNL     1       6.153  14.824  25.259  0.00  0.00     0.000 A 
ENDBRANCH  16  17
ENDBRANCH   9  12
BRANCH  10  23
HETATM   23  O   UNL     1       5.517  11.227  25.142  0.00  0.00    -0.360 OA
HETATM   24  H   UNL     1       6.187  11.928  25.174  0.00  0.00     0.217 HD
ENDBRANCH  10  23
TORSDOF 3
ENDMDL
MODEL 4
REMARK VINA RESULT:    -7.711      6.808      9.443
REMARK INTER + INTRA:          -9.312
REMARK INTER:                  -8.490
REMARK INTRA:                  -0.822
REMARK UNBOUND:                -0.474
REMARK  3 active torsions:
REMARK  status: ('A' for Active; 'I' for Inactive)
REMARK    1  A    between atoms: C_9  and  C_13 
REMARK    2  A    between atoms: C_10  and  O_12 
REMARK    3  A    between atoms: N_17  and  C_18 
ROOT
HETATM    1  N   UNL     1      -1.445   8.441  28.445  0.00  0.00    -0.277 N 
HETATM    2  H   UNL     1      -1.018   7.621  28.856  0.00  0.00     0.189 HD
HETATM    3  N   UNL     1      -2.529   8.967  29.048  0.00  0.00    -0.179 NA
HETATM    4  C   UNL     1      -2.849  10.010  28.274  0.00  0.00     0.063 A 
HETATM    5  C   UNL     1      -4.073  10.810  28.538  0.00  0.00     0.073 C 
HETATM    6  C   UNL     1      -1.948  10.157  27.184  0.00  0.00     0.019 A 
HETATM    7  C   UNL     1      -1.081   9.083  27.292  0.00  0.00     0.065 A 
HETATM    8  C   UNL     1      -1.804  11.048  26.105  0.00  0.00     0.032 C 
HETATM    9  C   UNL     1      -0.925  10.750  25.048  0.00  0.00     0.026 C 
HETATM   10  C   UNL     1      -0.070   9.640  25.206  0.00  0.00     0.080 C 
HETATM   11  C   UNL     1      -0.091   8.821  26.345  0.00  0.00     0.069 C 
ENDROOT
BRANCH   9  12
HETATM   12  C   UNL     1      -0.950  11.584  23.825  0.00  0.00     0.068 A 
HETATM   13  C   UNL     1      -1.974  11.786  22.912  0.00  0.00     0.053 A 
HETATM   14  C   UNL     1      -1.493  12.717  21.982  0.00  0.00     0.141 A 
HETATM   15  N   UNL     1      -0.246  13.093  22.244  0.00  0.00    -0.183 NA
HETATM   16  N   UNL     1       0.080  12.423  23.381  0.00  0.00    -0.257 N 
BRANCH  16  17
HETATM   17  C   UNL     1       1.349  12.743  24.075  0.00  0.00     0.155 A 
HETATM   18  C   UNL     1       2.606  12.281  23.355  0.00  0.00     0.000 A 
HETATM   19  C   UNL     1       3.677  13.069  23.163  0.00  0.00    -0.025 A 
HETATM   20  C   UNL     1       3.727  14.512  23.584  0.00  0.00     0.054 A 
HETATM   21  C   UNL     1       2.464  14.994  24.245  0.00  0.00    -0.025 A 
HETATM   22  C   UNL     1       1.401  14.205  24.465  0.00  0.00     0.000 A 
ENDBRANCH  16  17
ENDBRANCH   9  12
BRANCH  10  23
HETATM   23  O   UNL     1       0.827   9.241  24.249  0.00  0.00    -0.360 OA
HETATM   24  H   UNL     1       0.328   8.835  23.521  0.00  0.00     0.217 HD
ENDBRANCH  10  23
TORSDOF 3
ENDMDL
MODEL 5
REMARK VINA RESULT:    -7.544      2.114      5.551
REMARK INTER + INTRA:          -9.120
REMARK INTER:                  -7.899
REMARK INTRA:                  -1.222
REMARK UNBOUND:                -0.474
REMARK  3 active torsions:
REMARK  status: ('A' for Active; 'I' for Inactive)
REMARK    1  A    between atoms: C_9  and  C_13 
REMARK    2  A    between atoms: C_10  and  O_12 
REMARK    3  A    between atoms: N_17  and  C_18 
ROOT
HETATM    1  N   UNL     1       6.346  14.162  25.958  0.00  0.00    -0.277 N 
HETATM    2  H   UNL     1       6.709  14.063  26.898  0.00  0.00     0.189 HD
HETATM    3  N   UNL     1       5.671  15.287  25.649  0.00  0.00    -0.179 NA
HETATM    4  C   UNL     1       5.328  15.109  24.368  0.00  0.00     0.063 A 
HETATM    5  C   UNL     1       4.465  16.095  23.666  0.00  0.00     0.073 C 
HETATM    6  C   UNL     1       5.805  13.872  23.857  0.00  0.00     0.019 A 
HETATM    7  C   UNL     1       6.413  13.253  24.936  0.00  0.00     0.065 A 
HETATM    8  C   UNL     1       5.749  13.199  22.624  0.00  0.00     0.032 C 
HETATM    9  C   UNL     1       6.126  11.846  22.533  0.00  0.00     0.026 C 
HETATM   10  C   UNL     1       6.734  11.263  23.664  0.00  0.00     0.080 C 
HETATM   11  C   UNL     1       6.938  11.963  24.863  0.00  0.00     0.069 C 
ENDROOT
BRANCH   9  12
HETATM   12  C   UNL     1       5.854  11.097  21.285  0.00  0.00     0.068 A 
HETATM   13  C   UNL     1       4.689  10.472  20.864  0.00  0.00     0.053 A 
HETATM   14  C   UNL     1       4.954   9.973  19.581  0.00  0.00     0.141 A 
HETATM   15  N   UNL     1       6.196  10.231  19.187  0.00  0.00    -0.183 NA
HETATM   16  N   UNL     1       6.740  10.938  20.212  0.00  0.00    -0.257 N 
BRANCH  16  17
HETATM   17  C   UNL     1       8.074  11.558  20.040  0.00  0.00     0.155 A 
HETATM   18  C   UNL     1       8.072  13.078  20.006  0.00  0.00     0.000 A 
HETATM   19  C   UNL     1       8.923  13.832  20.723  0.00  0.00    -0.025 A 
HETATM   20  C   UNL     1       9.926  13.257  21.686  0.00  0.00     0.054 A 
HETATM   21  C   UNL     1       9.893  11.756  21.769  0.00  0.00    -0.025 A 
HETATM   22  C   UNL     1       9.067  10.995  21.034  0.00  0.00     0.000 A 
ENDBRANCH  16  17
ENDBRANCH   9  12
BRANCH  10  23
HETATM   23  O   UNL     1       7.140   9.954  23.707  0.00  0.00    -0.360 OA
HETATM   24  H   UNL     1       7.576   9.748  22.864  0.00  0.00     0.217 HD
ENDBRANCH  10  23
TORSDOF 3
ENDMDL
MODEL 6
REMARK VINA RESULT:    -7.524      7.000      9.327
REMARK INTER + INTRA:          -9.097
REMARK INTER:                  -8.271
REMARK INTRA:                  -0.826
REMARK UNBOUND:                -0.474
REMARK  3 active torsions:
REMARK  status: ('A' for Active; 'I' for Inactive)
REMARK    1  A    between atoms: C_9  and  C_13 
REMARK    2  A    between atoms: C_10  and  O_12 
REMARK    3  A    between atoms: N_17  and  C_18 
ROOT
HETATM    1  N   UNL     1      -0.343   8.206  29.079  0.00  0.00    -0.277 N 
HETATM    2  H   UNL     1      -0.670   8.111  30.032  0.00  0.00     0.189 HD
HETATM    3  N   UNL     1       0.776   7.547  28.719  0.00  0.00    -0.179 NA
HETATM    4  C   UNL     1       0.939   7.878  27.433  0.00  0.00     0.063 A 
HETATM    5  C   UNL     1       2.140   7.434  26.679  0.00  0.00     0.073 C 
HETATM    6  C   UNL     1      -0.094   8.737  26.971  0.00  0.00     0.019 A 
HETATM    7  C   UNL     1      -0.880   8.978  28.085  0.00  0.00     0.065 A 
HETATM    8  C   UNL     1      -0.417   9.364  25.755  0.00  0.00     0.032 C 
HETATM    9  C   UNL     1      -1.401  10.370  25.711  0.00  0.00     0.026 C 
HETATM   10  C   UNL     1      -2.168  10.580  26.876  0.00  0.00     0.080 C 
HETATM   11  C   UNL     1      -1.962   9.859  28.062  0.00  0.00     0.069 C 
ENDROOT
BRANCH   9  12
HETATM   12  C   UNL     1      -1.572  11.167  24.476  0.00  0.00     0.068 A 
HETATM   13  C   UNL     1      -2.652  11.232  23.607  0.00  0.00     0.053 A 
HETATM   14  C   UNL     1      -2.319  12.189  22.639  0.00  0.00     0.141 A 
HETATM   15  N   UNL     1      -1.112  12.707  22.837  0.00  0.00    -0.183 NA
HETATM   16  N   UNL     1      -0.663  12.105  23.970  0.00  0.00    -0.257 N 
BRANCH  16  17
HETATM   17  C   UNL     1       0.591  12.580  24.599  0.00  0.00     0.155 A 
HETATM   18  C   UNL     1       1.830  11.775  24.242  0.00  0.00     0.000 A 
HETATM   19  C   UNL     1       2.988  12.338  23.858  0.00  0.00    -0.025 A 
HETATM   20  C   UNL     1       3.167  13.821  23.679  0.00  0.00     0.054 A 
HETATM   21  C   UNL     1       1.928  14.620  23.974  0.00  0.00    -0.025 A 
HETATM   22  C   UNL     1       0.776  14.068  24.385  0.00  0.00     0.000 A 
ENDBRANCH  16  17
ENDBRANCH   9  12
BRANCH  10  23
HETATM   23  O   UNL     1      -3.151  11.532  26.966  0.00  0.00    -0.360 OA
HETATM   24  H   UNL     1      -4.003  11.075  27.050  0.00  0.00     0.217 HD
ENDBRANCH  10  23
TORSDOF 3
ENDMDL
MODEL 7
REMARK VINA RESULT:    -7.518      2.315      5.459
REMARK INTER + INTRA:          -9.090
REMARK INTER:                  -8.152
REMARK INTRA:                  -0.938
REMARK UNBOUND:                -0.474
REMARK  3 active torsions:
REMARK  status: ('A' for Active; 'I' for Inactive)
REMARK    1  A    between atoms: C_9  and  C_13 
REMARK    2  A    between atoms: C_10  and  O_12 
REMARK    3  A    between atoms: N_17  and  C_18 
ROOT
HETATM    1  N   UNL     1       2.440  14.761  26.153  0.00  0.00    -0.277 N 
HETATM    2  H   UNL     1       2.235  15.047  27.102  0.00  0.00     0.189 HD
HETATM    3  N   UNL     1       1.442  14.244  25.411  0.00  0.00    -0.179 NA
HETATM    4  C   UNL     1       2.027  13.967  24.240  0.00  0.00     0.063 A 
HETATM    5  C   UNL     1       1.280  13.274  23.159  0.00  0.00     0.073 C 
HETATM    6  C   UNL     1       3.401  14.330  24.235  0.00  0.00     0.019 A 
HETATM    7  C   UNL     1       3.652  14.789  25.517  0.00  0.00     0.065 A 
HETATM    8  C   UNL     1       4.457  14.276  23.308  0.00  0.00     0.032 C 
HETATM    9  C   UNL     1       5.783  14.498  23.723  0.00  0.00     0.026 C 
HETATM   10  C   UNL     1       5.982  14.958  25.041  0.00  0.00     0.080 C 
HETATM   11  C   UNL     1       4.927  15.163  25.943  0.00  0.00     0.069 C 
ENDROOT
BRANCH   9  12
HETATM   12  C   UNL     1       6.895  14.223  22.786  0.00  0.00     0.068 A 
HETATM   13  C   UNL     1       7.571  15.087  21.936  0.00  0.00     0.053 A 
HETATM   14  C   UNL     1       8.576  14.326  21.322  0.00  0.00     0.141 A 
HETATM   15  N   UNL     1       8.561  13.059  21.719  0.00  0.00    -0.183 NA
HETATM   16  N   UNL     1       7.554  12.997  22.629  0.00  0.00    -0.257 N 
BRANCH  16  17
HETATM   17  C   UNL     1       7.367  11.761  23.423  0.00  0.00     0.155 A 
HETATM   18  C   UNL     1       7.663  10.470  22.677  0.00  0.00     0.000 A 
HETATM   19  C   UNL     1       8.423   9.484  23.184  0.00  0.00    -0.025 A 
HETATM   20  C   UNL     1       9.114   9.576  24.517  0.00  0.00     0.054 A 
HETATM   21  C   UNL     1       8.873  10.875  25.236  0.00  0.00    -0.025 A 
HETATM   22  C   UNL     1       8.092  11.852  24.749  0.00  0.00     0.000 A 
ENDBRANCH  16  17
ENDBRANCH   9  12
BRANCH  10  23
HETATM   23  O   UNL     1       7.223  15.205  25.570  0.00  0.00    -0.360 OA
HETATM   24  H   UNL     1       7.395  16.158  25.499  0.00  0.00     0.217 HD
ENDBRANCH  10  23
TORSDOF 3
ENDMDL
MODEL 8
REMARK VINA RESULT:    -7.492      2.729      4.707
REMARK INTER + INTRA:          -9.061
REMARK INTER:                  -7.911
REMARK INTRA:                  -1.150
REMARK UNBOUND:                -0.474
REMARK  3 active torsions:
REMARK  status: ('A' for Active; 'I' for Inactive)
REMARK    1  A    between atoms: C_9  and  C_13 
REMARK    2  A    between atoms: C_10  and  O_12 
REMARK    3  A    between atoms: N_17  and  C_18 
ROOT
HETATM    1  N   UNL     1       8.554  14.962  27.403  0.00  0.00    -0.277 N 
HETATM    2  H   UNL     1       8.544  15.122  28.403  0.00  0.00     0.189 HD
HETATM    3  N   UNL     1       9.439  15.649  26.655  0.00  0.00    -0.179 NA
HETATM    4  C   UNL     1       9.198  15.226  25.409  0.00  0.00     0.063 A 
HETATM    5  C   UNL     1       9.904  15.828  24.249  0.00  0.00     0.073 C 
HETATM    6  C   UNL     1       8.165  14.251  25.371  0.00  0.00     0.019 A 
HETATM    7  C   UNL     1       7.727  14.146  26.680  0.00  0.00     0.065 A 
HETATM    8  C   UNL     1       7.531  13.488  24.373  0.00  0.00     0.032 C 
HETATM    9  C   UNL     1       6.349  12.780  24.660  0.00  0.00     0.026 C 
HETATM   10  C   UNL     1       5.944  12.712  26.009  0.00  0.00     0.080 C 
HETATM   11  C   UNL     1       6.647  13.343  27.047  0.00  0.00     0.069 C 
ENDROOT
BRANCH   9  12
HETATM   12  C   UNL     1       5.582  12.167  23.553  0.00  0.00     0.068 A 
HETATM   13  C   UNL     1       5.729  10.924  22.956  0.00  0.00     0.053 A 
HETATM   14  C   UNL     1       4.703  10.821  22.006  0.00  0.00     0.141 A 
HETATM   15  N   UNL     1       3.945  11.911  21.963  0.00  0.00    -0.183 NA
HETATM   16  N   UNL     1       4.462  12.725  22.922  0.00  0.00    -0.257 N 
BRANCH  16  17
HETATM   17  C   UNL     1       3.745  13.969  23.284  0.00  0.00     0.155 A 
HETATM   18  C   UNL     1       2.899  13.876  24.543  0.00  0.00     0.000 A 
HETATM   19  C   UNL     1       2.930  14.798  25.521  0.00  0.00    -0.025 A 
HETATM   20  C   UNL     1       3.850  15.988  25.505  0.00  0.00     0.054 A 
HETATM   21  C   UNL     1       4.732  16.055  24.288  0.00  0.00    -0.025 A 
HETATM   22  C   UNL     1       4.687  15.154  23.295  0.00  0.00     0.000 A 
ENDBRANCH  16  17
ENDBRANCH   9  12
BRANCH  10  23
HETATM   23  O   UNL     1       4.810  12.060  26.420  0.00  0.00    -0.360 OA
HETATM   24  H   UNL     1       4.644  11.329  25.803  0.00  0.00     0.217 HD
ENDBRANCH  10  23
TORSDOF 3
ENDMDL
MODEL 9
REMARK VINA RESULT:    -7.488      2.539      4.495
REMARK INTER + INTRA:          -9.056
REMARK INTER:                  -8.582
REMARK INTRA:                  -0.474
REMARK UNBOUND:                -0.474
REMARK  3 active torsions:
REMARK  status: ('A' for Active; 'I' for Inactive)
REMARK    1  A    between atoms: C_9  and  C_13 
REMARK    2  A    between atoms: C_10  and  O_12 
REMARK    3  A    between atoms: N_17  and  C_18 
ROOT
HETATM    1  N   UNL     1       6.649  10.426  19.582  0.00  0.00    -0.277 N 
HETATM    2  H   UNL     1       6.732  10.273  18.584  0.00  0.00     0.189 HD
HETATM    3  N   UNL     1       5.750   9.694  20.268  0.00  0.00    -0.179 NA
HETATM    4  C   UNL     1       5.879  10.130  21.526  0.00  0.00     0.063 A 
HETATM    5  C   UNL     1       4.975   9.641  22.599  0.00  0.00     0.073 C 
HETATM    6  C   UNL     1       6.881  11.131  21.640  0.00  0.00     0.019 A 
HETATM    7  C   UNL     1       7.321  11.342  20.345  0.00  0.00     0.065 A 
HETATM    8  C   UNL     1       7.424  11.903  22.682  0.00  0.00     0.032 C 
HETATM    9  C   UNL     1       8.253  13.003  22.397  0.00  0.00     0.026 C 
HETATM   10  C   UNL     1       8.666  13.177  21.060  0.00  0.00     0.080 C 
HETATM   11  C   UNL     1       8.256  12.326  20.022  0.00  0.00     0.069 C 
ENDROOT
BRANCH   9  12
HETATM   12  C   UNL     1       8.634  13.930  23.487  0.00  0.00     0.068 A 
HETATM   13  C   UNL     1       9.868  14.489  23.783  0.00  0.00     0.053 A 
HETATM   14  C   UNL     1       9.659  15.344  24.874  0.00  0.00     0.141 A 
HETATM   15  N   UNL     1       8.395  15.343  25.281  0.00  0.00    -0.183 NA
HETATM   16  N   UNL     1       7.761  14.501  24.423  0.00  0.00    -0.257 N 
BRANCH  16  17
HETATM   17  C   UNL     1       6.284  14.398  24.463  0.00  0.00     0.155 A 
HETATM   18  C   UNL     1       5.663  14.640  25.829  0.00  0.00     0.000 A 
HETATM   19  C   UNL     1       4.611  15.452  26.027  0.00  0.00    -0.025 A 
HETATM   20  C   UNL     1       3.972  16.257  24.929  0.00  0.00     0.054 A 
HETATM   21  C   UNL     1       4.618  16.067  23.584  0.00  0.00    -0.025 A 
HETATM   22  C   UNL     1       5.651  15.237  23.374  0.00  0.00     0.000 A 
ENDBRANCH  16  17
ENDBRANCH   9  12
BRANCH  10  23
HETATM   23  O   UNL     1       9.468  14.211  20.649  0.00  0.00    -0.360 OA
HETATM   24  H   UNL     1       9.196  14.462  19.752  0.00  0.00     0.217 HD
ENDBRANCH  10  23
TORSDOF 3
ENDMDL
