REMARK  3 active torsions:
REMARK  status: ('A' for Active; 'I' for Inactive)
REMARK    1  A    between atoms: C_9  and  C_13 
REMARK    2  A    between atoms: C_10  and  O_12 
REMARK    3  A    between atoms: N_17  and  C_18 
ROOT
HETATM    1  N   UNL     1      -1.670   1.072  -0.279  0.00  0.00    -0.277 N 
HETATM    2  H   UNL     1      -2.123   1.894   0.100  0.00  0.00     0.189 HD
HETATM    3  N   UNL     1      -2.432   0.153  -0.903  0.00  0.00    -0.179 NA
HETATM    4  C   UNL     1      -1.556  -0.788  -1.273  0.00  0.00     0.063 A 
HETATM    5  C   UNL     1      -2.015  -2.049  -1.911  0.00  0.00     0.073 C 
HETATM    6  C   UNL     1      -0.227  -0.453  -0.897  0.00  0.00     0.019 A 
HETATM    7  C   UNL     1      -0.345   0.737  -0.199  0.00  0.00     0.065 A 
HETATM    8  C   UNL     1       1.041  -1.045  -1.032  0.00  0.00     0.032 C 
HETATM    9  C   UNL     1       2.141  -0.547  -0.309  0.00  0.00     0.026 C 
HETATM   10  C   UNL     1       1.964   0.664   0.391  0.00  0.00     0.080 C 
HETATM   11  C   UNL     1       0.743   1.355   0.418  0.00  0.00     0.069 C 
ENDROOT
BRANCH   9  12
HETATM   12  C   UNL     1       3.408  -1.312  -0.294  0.00  0.00     0.068 A 
HETATM   13  C   UNL     1       4.717  -0.858  -0.359  0.00  0.00     0.053 A 
HETATM   14  C   UNL     1       5.532  -1.992  -0.239  0.00  0.00     0.141 A 
HETATM   15  N   UNL     1       4.825  -3.110  -0.119  0.00  0.00    -0.183 NA
HETATM   16  N   UNL     1       3.530  -2.698  -0.127  0.00  0.00    -0.257 N 
BRANCH  16  17
HETATM   17  C   UNL     1       2.455  -3.671   0.175  0.00  0.00     0.155 A 
HETATM   18  C   UNL     1       2.762  -5.106  -0.221  0.00  0.00     0.000 A 
HETATM   19  C   UNL     1       2.565  -6.154   0.597  0.00  0.00    -0.025 A 
HETATM   20  C   UNL     1       2.079  -6.016   2.014  0.00  0.00     0.054 A 
HETATM   21  C   UNL     1       1.829  -4.593   2.432  0.00  0.00    -0.025 A 
HETATM   22  C   UNL     1       1.996  -3.544   1.612  0.00  0.00     0.000 A 
ENDBRANCH  16  17
ENDBRANCH   9  12
BRANCH  10  23
HETATM   23  O   UNL     1       2.953   1.251   1.138  0.00  0.00    -0.360 OA
HETATM   24  H   UNL     1       3.617   0.573   1.342  0.00  0.00     0.217 HD
ENDBRANCH  10  23
TORSDOF 3
