REMARK  8 active torsions:
REMARK  status: ('A' for Active; 'I' for Inactive)
REMARK    1  A    between atoms: C_7  and  N_8 
REMARK    2  A    between atoms: C_14  and  C_15 
REMARK    3  A    between atoms: C_16  and  O_17 
REMARK    4  A    between atoms: C_19  and  O_20 
REMARK    5  A    between atoms: C_22  and  C_23 
REMARK       I    between atoms: C_23  and  N_25 
REMARK    6  A    between atoms: N_25  and  C_27 
REMARK    7  A    between atoms: C_27  and  C_28 
REMARK    8  A    between atoms: C_28  and  C_29 
ROOT
HETATM    1  C   UNL     1       0.122  -1.295  -0.433  0.00  0.00     0.046 C 
HETATM    2  C   UNL     1      -1.151  -1.592  -0.964  0.00  0.00     0.082 C 
HETATM    3  C   UNL     1      -2.096  -0.594  -1.187  0.00  0.00     0.075 C 
HETATM    4  C   UNL     1      -1.781   0.737  -0.920  0.00  0.00     0.084 C 
HETATM    5  C   UNL     1       0.373   0.043  -0.069  0.00  0.00     0.038 C 
HETATM    6  C   UNL     1      -0.531   1.092  -0.384  0.00  0.00     0.066 C 
ENDROOT
BRANCH   1   7
HETATM    7  C   UNL     1       1.098  -2.432  -0.289  0.00  0.00     0.172 A 
HETATM    8  N   UNL     1       2.486  -2.456  -0.338  0.00  0.00    -0.241 N 
HETATM    9  C   UNL     1       2.822  -3.802  -0.170  0.00  0.00     0.349 A 
HETATM   10  O   UNL     1       3.898  -4.372  -0.196  0.00  0.00    -0.245 OA
HETATM   11  N   UNL     1       1.619  -4.470   0.004  0.00  0.00    -0.226 N 
HETATM   12  H   UNL     1       1.526  -5.472   0.097  0.00  0.00     0.194 HD
HETATM   13  N   UNL     1       0.576  -3.623  -0.088  0.00  0.00    -0.151 NA
BRANCH   8  14
HETATM   14  C   UNL     1       3.490  -1.456  -0.557  0.00  0.00     0.084 C 
HETATM   15  C   UNL     1       3.248  -0.225  -1.168  0.00  0.00     0.143 C 
HETATM   16  F   UNL     1       2.120  -0.011  -1.852  0.00  0.00    -0.204 F 
HETATM   17  C   UNL     1       4.190   0.808  -1.180  0.00  0.00     0.044 C 
HETATM   18  C   UNL     1       5.481   0.578  -0.727  0.00  0.00     0.003 C 
HETATM   19  C   UNL     1       5.814  -0.688  -0.268  0.00  0.00     0.002 C 
HETATM   20  C   UNL     1       4.825  -1.676  -0.157  0.00  0.00     0.033 C 
ENDBRANCH   8  14
ENDBRANCH   1   7
BRANCH   2  21
HETATM   21  O   UNL     1      -1.567  -2.854  -1.309  0.00  0.00    -0.360 OA
HETATM   22  H   UNL     1      -0.919  -3.498  -0.947  0.00  0.00     0.217 HD
ENDBRANCH   2  21
BRANCH   6  23
HETATM   23  C   UNL     1      -0.083   2.541  -0.468  0.00  0.00     0.256 C 
HETATM   24  O   UNL     1      -0.424   3.164  -1.476  0.00  0.00    -0.267 OA
HETATM   25  N   UNL     1       0.777   3.137   0.476  0.00  0.00    -0.352 N 
HETATM   26  C   UNL     1       1.243   2.467   1.675  0.00  0.00     0.152 C 
BRANCH  25  27
HETATM   27  C   UNL     1       1.595   4.293   0.056  0.00  0.00     0.125 C 
BRANCH  27  28
HETATM   28  C   UNL     1       0.920   5.595  -0.407  0.00  0.00     0.020 C 
BRANCH  28  29
HETATM   29  C   UNL     1       0.036   6.326   0.605  0.00  0.00    -0.003 C 
HETATM   30  C   UNL     1       0.770   6.804   1.849  0.00  0.00     0.005 C 
ENDBRANCH  28  29
ENDBRANCH  27  28
ENDBRANCH  25  27
ENDBRANCH   6  23
BRANCH   4  31
HETATM   31  O   UNL     1      -2.738   1.680  -1.179  0.00  0.00    -0.360 OA
HETATM   32  H   UNL     1      -3.379   1.322  -1.816  0.00  0.00     0.217 HD
ENDBRANCH   4  31
TORSDOF 8
