MODEL 1
REMARK VINA RESULT:    -9.625      0.000      0.000
REMARK INTER + INTRA:         -12.391
REMARK INTER:                 -11.131
REMARK INTRA:                  -1.261
REMARK UNBOUND:                -1.079
REMARK  3 active torsions:
REMARK  status: ('A' for Active; 'I' for Inactive)
REMARK       I    between atoms: C_2  and  N_3 
REMARK    1  A    between atoms: C_2  and  C_27 
REMARK    2  A    between atoms: N_3  and  C_4 
REMARK    3  A    between atoms: C_16  and  C_17 
ROOT
HETATM    1  C   UNL     1       4.036   7.022  21.773  0.00  0.00     0.153 A 
HETATM    2  C   UNL     1       3.573   6.007  22.794  0.00  0.00    -0.020 A 
HETATM    3  C   UNL     1       3.508   4.627  22.623  0.00  0.00     0.010 A 
HETATM    4  C   UNL     1       3.076   3.847  23.691  0.00  0.00     0.001 A 
HETATM    5  C   UNL     1       2.748   4.451  24.909  0.00  0.00     0.001 A 
HETATM    6  C   UNL     1       2.837   5.842  25.071  0.00  0.00     0.013 A 
HETATM    7  C   UNL     1       3.218   6.643  24.005  0.00  0.00    -0.016 A 
HETATM    8  C   UNL     1       3.371   8.098  23.850  0.00  0.00    -0.003 A 
HETATM    9  C   UNL     1       3.890   8.323  22.542  0.00  0.00    -0.019 A 
HETATM   10  C   UNL     1       4.207   9.587  22.062  0.00  0.00     0.010 A 
HETATM   11  C   UNL     1       3.979  10.675  22.889  0.00  0.00     0.002 A 
HETATM   12  C   UNL     1       3.431  10.487  24.169  0.00  0.00     0.016 A 
HETATM   13  C   UNL     1       3.111   9.203  24.677  0.00  0.00     0.022 A 
ENDROOT
BRANCH   1  14
HETATM   14  N   UNL     1       3.180   6.989  20.610  0.00  0.00    -0.344 N 
HETATM   15  C   UNL     1       3.557   6.335  19.461  0.00  0.00     0.253 C 
HETATM   16  O   UNL     1       4.631   5.758  19.345  0.00  0.00    -0.268 OA
HETATM   17  H   UNL     1       2.423   7.657  20.592  0.00  0.00     0.163 HD
BRANCH  15  18
HETATM   18  C   UNL     1       2.579   6.354  18.345  0.00  0.00     0.047 A 
HETATM   19  C   UNL     1       2.779   7.149  17.207  0.00  0.00     0.037 A 
HETATM   20  C   UNL     1       1.797   7.178  16.230  0.00  0.00     0.120 A 
HETATM   21  N   UNL     1       0.629   6.503  16.268  0.00  0.00    -0.242 NA
HETATM   22  C   UNL     1       0.482   5.761  17.380  0.00  0.00     0.138 A 
HETATM   23  N   UNL     1      -0.624   5.004  17.655  0.00  0.00    -0.350 N 
HETATM   24  C   UNL     1       1.375   5.626  18.438  0.00  0.00     0.027 A 
HETATM   25  H   UNL     1      -1.429   4.952  17.047  0.00  0.00     0.166 HD
HETATM   26  C   UNL     1      -0.459   4.357  18.851  0.00  0.00     0.090 A 
HETATM   27  C   UNL     1       0.767   4.728  19.363  0.00  0.00     0.033 A 
ENDBRANCH  15  18
ENDBRANCH   1  14
BRANCH  13  28
HETATM   28  C   UNL     1       2.478   9.105  26.000  0.00  0.00     0.140 A 
HETATM   29  N   UNL     1       1.223   9.384  26.288  0.00  0.00    -0.227 NA
HETATM   30  C   UNL     1       1.034   9.057  27.604  0.00  0.00     0.103 A 
HETATM   31  C   UNL     1      -0.131   9.045  28.376  0.00  0.00     0.150 A 
HETATM   32  C   UNL     1       2.234   8.679  28.189  0.00  0.00     0.065 A 
HETATM   33  N   UNL     1      -0.076   8.695  29.688  0.00  0.00    -0.271 NA
HETATM   34  C   UNL     1       1.125   8.370  30.223  0.00  0.00     0.118 A 
HETATM   35  C   UNL     1       2.333   8.337  29.534  0.00  0.00     0.051 A 
HETATM   36  N   UNL     1       3.138   8.728  27.157  0.00  0.00    -0.338 N 
HETATM   37  H   UNL     1       4.115   8.480  27.218  0.00  0.00     0.167 HD
ENDBRANCH  13  28
TORSDOF 3
ENDMDL
MODEL 2
REMARK VINA RESULT:    -9.225      1.036      1.622
REMARK INTER + INTRA:         -11.922
REMARK INTER:                 -10.747
REMARK INTRA:                  -1.175
REMARK UNBOUND:                -1.079
REMARK  3 active torsions:
REMARK  status: ('A' for Active; 'I' for Inactive)
REMARK       I    between atoms: C_2  and  N_3 
REMARK    1  A    between atoms: C_2  and  C_27 
REMARK    2  A    between atoms: N_3  and  C_4 
REMARK    3  A    between atoms: C_16  and  C_17 
ROOT
HETATM    1  C   UNL     1       4.142   6.621  22.264  0.00  0.00     0.153 A 
HETATM    2  C   UNL     1       3.629   5.708  23.355  0.00  0.00    -0.020 A 
HETATM    3  C   UNL     1       3.602   4.317  23.328  0.00  0.00     0.010 A 
HETATM    4  C   UNL     1       3.111   3.643  24.443  0.00  0.00     0.001 A 
HETATM    5  C   UNL     1       2.687   4.364  25.564  0.00  0.00     0.001 A 
HETATM    6  C   UNL     1       2.739   5.765  25.582  0.00  0.00     0.013 A 
HETATM    7  C   UNL     1       3.178   6.459  24.464  0.00  0.00    -0.016 A 
HETATM    8  C   UNL     1       3.314   7.893  24.164  0.00  0.00    -0.003 A 
HETATM    9  C   UNL     1       3.918   7.992  22.877  0.00  0.00    -0.019 A 
HETATM   10  C   UNL     1       4.244   9.206  22.287  0.00  0.00     0.010 A 
HETATM   11  C   UNL     1       3.938  10.369  22.975  0.00  0.00     0.002 A 
HETATM   12  C   UNL     1       3.306  10.303  24.228  0.00  0.00     0.016 A 
HETATM   13  C   UNL     1       2.976   9.072  24.849  0.00  0.00     0.022 A 
ENDROOT
BRANCH   1  14
HETATM   14  N   UNL     1       3.370   6.443  21.057  0.00  0.00    -0.344 N 
HETATM   15  C   UNL     1       3.930   5.908  19.920  0.00  0.00     0.253 C 
HETATM   16  O   UNL     1       5.103   5.564  19.855  0.00  0.00    -0.268 OA
HETATM   17  H   UNL     1       2.495   6.943  21.007  0.00  0.00     0.163 HD
BRANCH  15  18
HETATM   18  C   UNL     1       3.026   5.754  18.754  0.00  0.00     0.047 A 
HETATM   19  C   UNL     1       2.740   4.494  18.208  0.00  0.00     0.037 A 
HETATM   20  C   UNL     1       1.944   4.420  17.076  0.00  0.00     0.120 A 
HETATM   21  N   UNL     1       1.406   5.471  16.423  0.00  0.00    -0.242 NA
HETATM   22  C   UNL     1       1.713   6.655  16.981  0.00  0.00     0.138 A 
HETATM   23  N   UNL     1       1.299   7.863  16.489  0.00  0.00    -0.350 N 
HETATM   24  C   UNL     1       2.489   6.888  18.111  0.00  0.00     0.027 A 
HETATM   25  H   UNL     1       0.738   7.964  15.656  0.00  0.00     0.166 HD
HETATM   26  C   UNL     1       1.763   8.874  17.290  0.00  0.00     0.090 A 
HETATM   27  C   UNL     1       2.508   8.301  18.299  0.00  0.00     0.033 A 
ENDBRANCH  15  18
ENDBRANCH   1  14
BRANCH  13  28
HETATM   28  C   UNL     1       2.254   9.098  26.129  0.00  0.00     0.140 A 
HETATM   29  N   UNL     1       0.986   9.410  26.305  0.00  0.00    -0.227 NA
HETATM   30  C   UNL     1       0.705   9.204  27.629  0.00  0.00     0.103 A 
HETATM   31  C   UNL     1      -0.509   9.270  28.317  0.00  0.00     0.150 A 
HETATM   32  C   UNL     1       1.858   8.873  28.325  0.00  0.00     0.065 A 
HETATM   33  N   UNL     1      -0.547   9.039  29.656  0.00  0.00    -0.271 NA
HETATM   34  C   UNL     1       0.611   8.756  30.299  0.00  0.00     0.118 A 
HETATM   35  C   UNL     1       1.862   8.652  29.699  0.00  0.00     0.051 A 
HETATM   36  N   UNL     1       2.830   8.822  27.357  0.00  0.00    -0.338 N 
HETATM   37  H   UNL     1       3.797   8.574  27.506  0.00  0.00     0.167 HD
ENDBRANCH  13  28
TORSDOF 3
ENDMDL
MODEL 3
REMARK VINA RESULT:    -9.070      1.647      1.984
REMARK INTER + INTRA:         -11.740
REMARK INTER:                 -10.657
REMARK INTRA:                  -1.082
REMARK UNBOUND:                -1.079
REMARK  3 active torsions:
REMARK  status: ('A' for Active; 'I' for Inactive)
REMARK       I    between atoms: C_2  and  N_3 
REMARK    1  A    between atoms: C_2  and  C_27 
REMARK    2  A    between atoms: N_3  and  C_4 
REMARK    3  A    between atoms: C_16  and  C_17 
ROOT
HETATM    1  C   UNL     1       4.573   6.397  20.446  0.00  0.00     0.153 A 
HETATM    2  C   UNL     1       4.543   5.192  21.359  0.00  0.00    -0.020 A 
HETATM    3  C   UNL     1       4.674   3.859  20.980  0.00  0.00     0.010 A 
HETATM    4  C   UNL     1       4.645   2.883  21.971  0.00  0.00     0.001 A 
HETATM    5  C   UNL     1       4.516   3.254  23.313  0.00  0.00     0.001 A 
HETATM    6  C   UNL     1       4.405   4.604  23.681  0.00  0.00     0.013 A 
HETATM    7  C   UNL     1       4.382   5.590  22.706  0.00  0.00    -0.016 A 
HETATM    8  C   UNL     1       4.246   7.053  22.764  0.00  0.00    -0.003 A 
HETATM    9  C   UNL     1       4.395   7.538  21.432  0.00  0.00    -0.019 A 
HETATM   10  C   UNL     1       4.371   8.888  21.112  0.00  0.00     0.010 A 
HETATM   11  C   UNL     1       4.165   9.798  22.137  0.00  0.00     0.002 A 
HETATM   12  C   UNL     1       3.974   9.348  23.454  0.00  0.00     0.016 A 
HETATM   13  C   UNL     1       4.005   7.974  23.799  0.00  0.00     0.022 A 
ENDROOT
BRANCH   1  14
HETATM   14  N   UNL     1       3.485   6.335  19.498  0.00  0.00    -0.344 N 
HETATM   15  C   UNL     1       3.714   6.159  18.154  0.00  0.00     0.253 C 
HETATM   16  O   UNL     1       4.838   6.057  17.678  0.00  0.00    -0.268 OA
HETATM   17  H   UNL     1       2.589   6.665  19.824  0.00  0.00     0.163 HD
BRANCH  15  18
HETATM   18  C   UNL     1       2.512   6.087  17.288  0.00  0.00     0.047 A 
HETATM   19  C   UNL     1       2.390   6.875  16.134  0.00  0.00     0.037 A 
HETATM   20  C   UNL     1       1.214   6.816  15.404  0.00  0.00     0.120 A 
HETATM   21  N   UNL     1       0.138   6.059  15.705  0.00  0.00    -0.242 NA
HETATM   22  C   UNL     1       0.301   5.328  16.822  0.00  0.00     0.138 A 
HETATM   23  N   UNL     1      -0.655   4.497  17.339  0.00  0.00    -0.350 N 
HETATM   24  C   UNL     1       1.417   5.276  17.651  0.00  0.00     0.027 A 
HETATM   25  H   UNL     1      -1.570   4.376  16.929  0.00  0.00     0.166 HD
HETATM   26  C   UNL     1      -0.177   3.884  18.468  0.00  0.00     0.090 A 
HETATM   27  C   UNL     1       1.101   4.352  18.689  0.00  0.00     0.033 A 
ENDBRANCH  15  18
ENDBRANCH   1  14
BRANCH  13  28
HETATM   28  C   UNL     1       3.730   7.588  25.190  0.00  0.00     0.140 A 
HETATM   29  N   UNL     1       2.563   7.647  25.800  0.00  0.00    -0.227 NA
HETATM   30  C   UNL     1       2.734   7.098  27.043  0.00  0.00     0.103 A 
HETATM   31  C   UNL     1       1.801   6.811  28.042  0.00  0.00     0.150 A 
HETATM   32  C   UNL     1       4.072   6.801  27.262  0.00  0.00     0.065 A 
HETATM   33  N   UNL     1       2.210   6.273  29.221  0.00  0.00    -0.271 NA
HETATM   34  C   UNL     1       3.531   6.035  29.403  0.00  0.00     0.118 A 
HETATM   35  C   UNL     1       4.530   6.272  28.465  0.00  0.00     0.051 A 
HETATM   36  N   UNL     1       4.686   7.130  26.079  0.00  0.00    -0.338 N 
HETATM   37  H   UNL     1       5.666   7.009  25.872  0.00  0.00     0.167 HD
ENDBRANCH  13  28
TORSDOF 3
ENDMDL
MODEL 4
REMARK VINA RESULT:    -9.002      1.928      2.184
REMARK INTER + INTRA:         -11.659
REMARK INTER:                 -10.386
REMARK INTRA:                  -1.273
REMARK UNBOUND:                -1.079
REMARK  3 active torsions:
REMARK  status: ('A' for Active; 'I' for Inactive)
REMARK       I    between atoms: C_2  and  N_3 
REMARK    1  A    between atoms: C_2  and  C_27 
REMARK    2  A    between atoms: N_3  and  C_4 
REMARK    3  A    between atoms: C_16  and  C_17 
ROOT
HETATM    1  C   UNL     1       4.675   8.179  22.588  0.00  0.00     0.153 A 
HETATM    2  C   UNL     1       4.891   6.910  23.382  0.00  0.00    -0.020 A 
HETATM    3  C   UNL     1       5.571   5.771  22.958  0.00  0.00     0.010 A 
HETATM    4  C   UNL     1       5.689   4.704  23.843  0.00  0.00     0.001 A 
HETATM    5  C   UNL     1       5.157   4.804  25.133  0.00  0.00     0.001 A 
HETATM    6  C   UNL     1       4.492   5.966  25.551  0.00  0.00     0.013 A 
HETATM    7  C   UNL     1       4.319   7.023  24.669  0.00  0.00    -0.016 A 
HETATM    8  C   UNL     1       3.655   8.330  24.790  0.00  0.00    -0.003 A 
HETATM    9  C   UNL     1       3.895   9.032  23.573  0.00  0.00    -0.019 A 
HETATM   10  C   UNL     1       3.453  10.328  23.349  0.00  0.00     0.010 A 
HETATM   11  C   UNL     1       2.723  10.951  24.348  0.00  0.00     0.002 A 
HETATM   12  C   UNL     1       2.437  10.270  25.543  0.00  0.00     0.016 A 
HETATM   13  C   UNL     1       2.889   8.949  25.792  0.00  0.00     0.022 A 
ENDROOT
BRANCH   1  14
HETATM   14  N   UNL     1       3.907   7.900  21.397  0.00  0.00    -0.344 N 
HETATM   15  C   UNL     1       4.410   8.156  20.143  0.00  0.00     0.253 C 
HETATM   16  O   UNL     1       5.519   8.641  19.957  0.00  0.00    -0.268 OA
HETATM   17  H   UNL     1       2.918   7.746  21.529  0.00  0.00     0.163 HD
BRANCH  15  18
HETATM   18  C   UNL     1       3.532   7.803  19.000  0.00  0.00     0.047 A 
HETATM   19  C   UNL     1       2.695   8.753  18.397  0.00  0.00     0.037 A 
HETATM   20  C   UNL     1       1.846   8.347  17.379  0.00  0.00     0.120 A 
HETATM   21  N   UNL     1       1.736   7.090  16.901  0.00  0.00    -0.242 NA
HETATM   22  C   UNL     1       2.553   6.217  17.516  0.00  0.00     0.138 A 
HETATM   23  N   UNL     1       2.609   4.882  17.219  0.00  0.00    -0.350 N 
HETATM   24  C   UNL     1       3.458   6.472  18.540  0.00  0.00     0.027 A 
HETATM   25  H   UNL     1       2.028   4.441  16.520  0.00  0.00     0.166 HD
HETATM   26  C   UNL     1       3.549   4.270  18.006  0.00  0.00     0.090 A 
HETATM   27  C   UNL     1       4.087   5.229  18.839  0.00  0.00     0.033 A 
ENDBRANCH  15  18
ENDBRANCH   1  14
BRANCH  13  28
HETATM   28  C   UNL     1       2.486   8.288  27.041  0.00  0.00     0.140 A 
HETATM   29  N   UNL     1       1.453   7.486  27.202  0.00  0.00    -0.227 NA
HETATM   30  C   UNL     1       1.510   7.016  28.487  0.00  0.00     0.103 A 
HETATM   31  C   UNL     1       0.731   6.054  29.134  0.00  0.00     0.150 A 
HETATM   32  C   UNL     1       2.534   7.637  29.186  0.00  0.00     0.065 A 
HETATM   33  N   UNL     1       0.962   5.756  30.440  0.00  0.00    -0.271 NA
HETATM   34  C   UNL     1       1.949   6.415  31.091  0.00  0.00     0.118 A 
HETATM   35  C   UNL     1       2.785   7.374  30.530  0.00  0.00     0.051 A 
HETATM   36  N   UNL     1       3.133   8.448  28.254  0.00  0.00    -0.338 N 
HETATM   37  H   UNL     1       3.944   9.027  28.412  0.00  0.00     0.167 HD
ENDBRANCH  13  28
TORSDOF 3
ENDMDL
MODEL 5
REMARK VINA RESULT:    -8.821      2.620      9.558
REMARK INTER + INTRA:         -11.446
REMARK INTER:                 -10.331
REMARK INTRA:                  -1.115
REMARK UNBOUND:                -1.079
REMARK  3 active torsions:
REMARK  status: ('A' for Active; 'I' for Inactive)
REMARK       I    between atoms: C_2  and  N_3 
REMARK    1  A    between atoms: C_2  and  C_27 
REMARK    2  A    between atoms: N_3  and  C_4 
REMARK    3  A    between atoms: C_16  and  C_17 
ROOT
HETATM    1  C   UNL     1       4.609   6.195  19.844  0.00  0.00     0.153 A 
HETATM    2  C   UNL     1       3.602   7.000  19.054  0.00  0.00    -0.020 A 
HETATM    3  C   UNL     1       3.396   8.374  19.127  0.00  0.00     0.010 A 
HETATM    4  C   UNL     1       2.433   8.944  18.299  0.00  0.00     0.001 A 
HETATM    5  C   UNL     1       1.722   8.142  17.401  0.00  0.00     0.001 A 
HETATM    6  C   UNL     1       1.956   6.761  17.326  0.00  0.00     0.013 A 
HETATM    7  C   UNL     1       2.875   6.164  18.176  0.00  0.00    -0.016 A 
HETATM    8  C   UNL     1       3.310   4.772  18.362  0.00  0.00    -0.003 A 
HETATM    9  C   UNL     1       4.362   4.791  19.323  0.00  0.00    -0.019 A 
HETATM   10  C   UNL     1       5.050   3.650  19.713  0.00  0.00     0.010 A 
HETATM   11  C   UNL     1       4.671   2.437  19.158  0.00  0.00     0.002 A 
HETATM   12  C   UNL     1       3.611   2.383  18.238  0.00  0.00     0.016 A 
HETATM   13  C   UNL     1       2.905   3.539  17.822  0.00  0.00     0.022 A 
ENDROOT
BRANCH   1  14
HETATM   14  N   UNL     1       4.333   6.297  21.259  0.00  0.00    -0.344 N 
HETATM   15  C   UNL     1       5.339   6.501  22.173  0.00  0.00     0.253 C 
HETATM   16  O   UNL     1       6.518   6.597  21.855  0.00  0.00    -0.268 OA
HETATM   17  H   UNL     1       3.426   5.972  21.561  0.00  0.00     0.163 HD
BRANCH  15  18
HETATM   18  C   UNL     1       4.922   6.612  23.592  0.00  0.00     0.047 A 
HETATM   19  C   UNL     1       5.202   5.598  24.520  0.00  0.00     0.037 A 
HETATM   20  C   UNL     1       4.726   5.726  25.816  0.00  0.00     0.120 A 
HETATM   21  N   UNL     1       3.992   6.757  26.285  0.00  0.00    -0.242 NA
HETATM   22  C   UNL     1       3.746   7.698  25.357  0.00  0.00     0.138 A 
HETATM   23  N   UNL     1       3.009   8.827  25.590  0.00  0.00    -0.350 N 
HETATM   24  C   UNL     1       4.158   7.713  24.029  0.00  0.00     0.027 A 
HETATM   25  H   UNL     1       2.577   9.039  26.477  0.00  0.00     0.166 HD
HETATM   26  C   UNL     1       2.957   9.590  24.452  0.00  0.00     0.090 A 
HETATM   27  C   UNL     1       3.654   8.922  23.468  0.00  0.00     0.033 A 
ENDBRANCH  15  18
ENDBRANCH   1  14
BRANCH  13  28
HETATM   28  C   UNL     1       1.765   3.381  16.908  0.00  0.00     0.140 A 
HETATM   29  N   UNL     1       0.658   2.707  17.149  0.00  0.00    -0.227 NA
HETATM   30  C   UNL     1      -0.171   2.906  16.078  0.00  0.00     0.103 A 
HETATM   31  C   UNL     1      -1.497   2.517  15.875  0.00  0.00     0.150 A 
HETATM   32  C   UNL     1       0.482   3.622  15.085  0.00  0.00     0.065 A 
HETATM   33  N   UNL     1      -2.124   2.817  14.707  0.00  0.00    -0.271 NA
HETATM   34  C   UNL     1      -1.434   3.484  13.752  0.00  0.00     0.118 A 
HETATM   35  C   UNL     1      -0.120   3.926  13.867  0.00  0.00     0.051 A 
HETATM   36  N   UNL     1       1.712   3.902  15.627  0.00  0.00    -0.338 N 
HETATM   37  H   UNL     1       2.439   4.445  15.186  0.00  0.00     0.167 HD
ENDBRANCH  13  28
TORSDOF 3
ENDMDL
MODEL 6
REMARK VINA RESULT:    -8.504      2.567      9.472
REMARK INTER + INTRA:         -11.074
REMARK INTER:                  -9.797
REMARK INTRA:                  -1.277
REMARK UNBOUND:                -1.079
REMARK  3 active torsions:
REMARK  status: ('A' for Active; 'I' for Inactive)
REMARK       I    between atoms: C_2  and  N_3 
REMARK    1  A    between atoms: C_2  and  C_27 
REMARK    2  A    between atoms: N_3  and  C_4 
REMARK    3  A    between atoms: C_16  and  C_17 
ROOT
HETATM    1  C   UNL     1       3.906   6.786  20.174  0.00  0.00     0.153 A 
HETATM    2  C   UNL     1       3.080   7.328  19.029  0.00  0.00    -0.020 A 
HETATM    3  C   UNL     1       2.796   8.666  18.771  0.00  0.00     0.010 A 
HETATM    4  C   UNL     1       2.034   8.975  17.648  0.00  0.00     0.001 A 
HETATM    5  C   UNL     1       1.599   7.955  16.796  0.00  0.00     0.001 A 
HETATM    6  C   UNL     1       1.911   6.613  17.060  0.00  0.00     0.013 A 
HETATM    7  C   UNL     1       2.627   6.277  18.200  0.00  0.00    -0.016 A 
HETATM    8  C   UNL     1       3.072   4.992  18.761  0.00  0.00    -0.003 A 
HETATM    9  C   UNL     1       3.860   5.292  19.909  0.00  0.00    -0.019 A 
HETATM   10  C   UNL     1       4.489   4.315  20.670  0.00  0.00     0.010 A 
HETATM   11  C   UNL     1       4.314   2.990  20.304  0.00  0.00     0.002 A 
HETATM   12  C   UNL     1       3.509   2.662  19.200  0.00  0.00     0.016 A 
HETATM   13  C   UNL     1       2.868   3.647  18.408  0.00  0.00     0.022 A 
ENDROOT
BRANCH   1  14
HETATM   14  N   UNL     1       3.293   7.124  21.438  0.00  0.00    -0.344 N 
HETATM   15  C   UNL     1       4.050   7.491  22.526  0.00  0.00     0.253 C 
HETATM   16  O   UNL     1       5.273   7.542  22.499  0.00  0.00    -0.268 OA
HETATM   17  H   UNL     1       2.330   6.847  21.556  0.00  0.00     0.163 HD
BRANCH  15  18
HETATM   18  C   UNL     1       3.300   7.837  23.758  0.00  0.00     0.047 A 
HETATM   19  C   UNL     1       3.068   9.171  24.125  0.00  0.00     0.037 A 
HETATM   20  C   UNL     1       2.422   9.433  25.323  0.00  0.00     0.120 A 
HETATM   21  N   UNL     1       1.988   8.505  26.202  0.00  0.00    -0.242 NA
HETATM   22  C   UNL     1       2.239   7.245  25.808  0.00  0.00     0.138 A 
HETATM   23  N   UNL     1       1.910   6.135  26.539  0.00  0.00    -0.350 N 
HETATM   24  C   UNL     1       2.867   6.826  24.640  0.00  0.00     0.027 A 
HETATM   25  H   UNL     1       1.462   6.175  27.442  0.00  0.00     0.166 HD
HETATM   26  C   UNL     1       2.283   5.005  25.859  0.00  0.00     0.090 A 
HETATM   27  C   UNL     1       2.884   5.402  24.683  0.00  0.00     0.033 A 
ENDBRANCH  15  18
ENDBRANCH   1  14
BRANCH  13  28
HETATM   28  C   UNL     1       1.991   3.212  17.312  0.00  0.00     0.140 A 
HETATM   29  N   UNL     1       0.673   3.191  17.328  0.00  0.00    -0.227 NA
HETATM   30  C   UNL     1       0.265   2.818  16.076  0.00  0.00     0.103 A 
HETATM   31  C   UNL     1      -1.017   2.752  15.524  0.00  0.00     0.150 A 
HETATM   32  C   UNL     1       1.356   2.477  15.291  0.00  0.00     0.065 A 
HETATM   33  N   UNL     1      -1.186   2.331  14.243  0.00  0.00    -0.271 NA
HETATM   34  C   UNL     1      -0.093   1.973  13.527  0.00  0.00     0.118 A 
HETATM   35  C   UNL     1       1.220   2.020  13.983  0.00  0.00     0.051 A 
HETATM   36  N   UNL     1       2.440   2.723  16.098  0.00  0.00    -0.338 N 
HETATM   37  H   UNL     1       3.407   2.615  15.833  0.00  0.00     0.167 HD
ENDBRANCH  13  28
TORSDOF 3
ENDMDL
MODEL 7
REMARK VINA RESULT:    -8.494      2.906      8.609
REMARK INTER + INTRA:         -11.063
REMARK INTER:                 -10.205
REMARK INTRA:                  -0.858
REMARK UNBOUND:                -1.079
REMARK  3 active torsions:
REMARK  status: ('A' for Active; 'I' for Inactive)
REMARK       I    between atoms: C_2  and  N_3 
REMARK    1  A    between atoms: C_2  and  C_27 
REMARK    2  A    between atoms: N_3  and  C_4 
REMARK    3  A    between atoms: C_16  and  C_17 
ROOT
HETATM    1  C   UNL     1       3.265   7.867  25.264  0.00  0.00     0.153 A 
HETATM    2  C   UNL     1       3.642   8.317  23.870  0.00  0.00    -0.020 A 
HETATM    3  C   UNL     1       3.883   9.624  23.456  0.00  0.00     0.010 A 
HETATM    4  C   UNL     1       4.243   9.842  22.130  0.00  0.00     0.001 A 
HETATM    5  C   UNL     1       4.383   8.758  21.257  0.00  0.00     0.001 A 
HETATM    6  C   UNL     1       4.155   7.445  21.695  0.00  0.00     0.013 A 
HETATM    7  C   UNL     1       3.747   7.209  22.999  0.00  0.00    -0.016 A 
HETATM    8  C   UNL     1       3.403   5.982  23.734  0.00  0.00    -0.003 A 
HETATM    9  C   UNL     1       3.153   6.364  25.084  0.00  0.00    -0.019 A 
HETATM   10  C   UNL     1       2.844   5.450  26.083  0.00  0.00     0.010 A 
HETATM   11  C   UNL     1       2.749   4.112  25.737  0.00  0.00     0.002 A 
HETATM   12  C   UNL     1       2.951   3.711  24.406  0.00  0.00     0.016 A 
HETATM   13  C   UNL     1       3.277   4.629  23.376  0.00  0.00     0.022 A 
ENDROOT
BRANCH   1  14
HETATM   14  N   UNL     1       2.005   8.454  25.657  0.00  0.00    -0.344 N 
HETATM   15  C   UNL     1       1.775   8.857  26.951  0.00  0.00     0.253 C 
HETATM   16  O   UNL     1       2.605   8.736  27.844  0.00  0.00    -0.268 OA
HETATM   17  H   UNL     1       1.235   8.331  25.016  0.00  0.00     0.163 HD
BRANCH  15  18
HETATM   18  C   UNL     1       0.450   9.468  27.221  0.00  0.00     0.047 A 
HETATM   19  C   UNL     1      -0.124   9.438  28.501  0.00  0.00     0.037 A 
HETATM   20  C   UNL     1      -1.395   9.963  28.676  0.00  0.00     0.120 A 
HETATM   21  N   UNL     1      -2.161  10.509  27.708  0.00  0.00    -0.242 NA
HETATM   22  C   UNL     1      -1.569  10.508  26.501  0.00  0.00     0.138 A 
HETATM   23  N   UNL     1      -2.154  10.992  25.362  0.00  0.00    -0.350 N 
HETATM   24  C   UNL     1      -0.307  10.028  26.172  0.00  0.00     0.027 A 
HETATM   25  H   UNL     1      -3.086  11.378  25.334  0.00  0.00     0.166 HD
HETATM   26  C   UNL     1      -1.289  10.864  24.306  0.00  0.00     0.090 A 
HETATM   27  C   UNL     1      -0.140  10.264  24.776  0.00  0.00     0.033 A 
ENDBRANCH  15  18
ENDBRANCH   1  14
BRANCH  13  28
HETATM   28  C   UNL     1       3.405   4.131  21.999  0.00  0.00     0.140 A 
HETATM   29  N   UNL     1       4.521   3.766  21.401  0.00  0.00    -0.227 NA
HETATM   30  C   UNL     1       4.172   3.274  20.172  0.00  0.00     0.103 A 
HETATM   31  C   UNL     1       4.950   2.653  19.192  0.00  0.00     0.150 A 
HETATM   32  C   UNL     1       2.815   3.451  19.945  0.00  0.00     0.065 A 
HETATM   33  N   UNL     1       4.383   2.255  18.023  0.00  0.00    -0.271 NA
HETATM   34  C   UNL     1       3.062   2.484  17.831  0.00  0.00     0.118 A 
HETATM   35  C   UNL     1       2.204   3.078  18.752  0.00  0.00     0.051 A 
HETATM   36  N   UNL     1       2.350   4.007  21.111  0.00  0.00    -0.338 N 
HETATM   37  H   UNL     1       1.389   4.238  21.310  0.00  0.00     0.167 HD
ENDBRANCH  13  28
TORSDOF 3
ENDMDL
MODEL 8
REMARK VINA RESULT:    -8.494      6.104      9.181
REMARK INTER + INTRA:         -11.062
REMARK INTER:                  -9.857
REMARK INTRA:                  -1.205
REMARK UNBOUND:                -1.079
REMARK  3 active torsions:
REMARK  status: ('A' for Active; 'I' for Inactive)
REMARK       I    between atoms: C_2  and  N_3 
REMARK    1  A    between atoms: C_2  and  C_27 
REMARK    2  A    between atoms: N_3  and  C_4 
REMARK    3  A    between atoms: C_16  and  C_17 
ROOT
HETATM    1  C   UNL     1      -1.131   1.878  16.799  0.00  0.00     0.153 A 
HETATM    2  C   UNL     1      -0.291   1.932  18.055  0.00  0.00    -0.020 A 
HETATM    3  C   UNL     1      -0.354   1.054  19.134  0.00  0.00     0.010 A 
HETATM    4  C   UNL     1       0.520   1.251  20.198  0.00  0.00     0.001 A 
HETATM    5  C   UNL     1       1.453   2.292  20.153  0.00  0.00     0.001 A 
HETATM    6  C   UNL     1       1.517   3.155  19.049  0.00  0.00     0.013 A 
HETATM    7  C   UNL     1       0.622   3.009  18.000  0.00  0.00    -0.016 A 
HETATM    8  C   UNL     1       0.414   3.755  16.749  0.00  0.00    -0.003 A 
HETATM    9  C   UNL     1      -0.598   3.067  16.019  0.00  0.00    -0.019 A 
HETATM   10  C   UNL     1      -1.022   3.463  14.757  0.00  0.00     0.010 A 
HETATM   11  C   UNL     1      -0.449   4.597  14.203  0.00  0.00     0.002 A 
HETATM   12  C   UNL     1       0.523   5.318  14.917  0.00  0.00     0.016 A 
HETATM   13  C   UNL     1       0.973   4.922  16.201  0.00  0.00     0.022 A 
ENDROOT
BRANCH   1  14
HETATM   14  N   UNL     1      -2.530   2.036  17.124  0.00  0.00    -0.344 N 
HETATM   15  C   UNL     1      -3.418   0.994  16.993  0.00  0.00     0.253 C 
HETATM   16  O   UNL     1      -3.089  -0.114  16.588  0.00  0.00    -0.268 OA
HETATM   17  H   UNL     1      -2.864   2.984  17.211  0.00  0.00     0.163 HD
BRANCH  15  18
HETATM   18  C   UNL     1      -4.821   1.277  17.382  0.00  0.00     0.047 A 
HETATM   19  C   UNL     1      -5.816   1.511  16.422  0.00  0.00     0.037 A 
HETATM   20  C   UNL     1      -7.093   1.840  16.847  0.00  0.00     0.120 A 
HETATM   21  N   UNL     1      -7.486   1.967  18.132  0.00  0.00    -0.242 NA
HETATM   22  C   UNL     1      -6.497   1.738  19.013  0.00  0.00     0.138 A 
HETATM   23  N   UNL     1      -6.646   1.824  20.371  0.00  0.00    -0.350 N 
HETATM   24  C   UNL     1      -5.176   1.396  18.742  0.00  0.00     0.027 A 
HETATM   25  H   UNL     1      -7.512   2.081  20.822  0.00  0.00     0.166 HD
HETATM   26  C   UNL     1      -5.461   1.518  20.988  0.00  0.00     0.090 A 
HETATM   27  C   UNL     1      -4.531   1.255  20.005  0.00  0.00     0.033 A 
ENDBRANCH  15  18
ENDBRANCH   1  14
BRANCH  13  28
HETATM   28  C   UNL     1       1.943   5.773  16.903  0.00  0.00     0.140 A 
HETATM   29  N   UNL     1       1.740   7.006  17.324  0.00  0.00    -0.227 NA
HETATM   30  C   UNL     1       2.862   7.382  18.012  0.00  0.00     0.103 A 
HETATM   31  C   UNL     1       3.124   8.536  18.754  0.00  0.00     0.150 A 
HETATM   32  C   UNL     1       3.843   6.406  17.914  0.00  0.00     0.065 A 
HETATM   33  N   UNL     1       4.335   8.705  19.347  0.00  0.00    -0.271 NA
HETATM   34  C   UNL     1       5.273   7.741  19.193  0.00  0.00     0.118 A 
HETATM   35  C   UNL     1       5.102   6.554  18.488  0.00  0.00     0.051 A 
HETATM   36  N   UNL     1       3.243   5.400  17.198  0.00  0.00    -0.338 N 
HETATM   37  H   UNL     1       3.662   4.511  16.968  0.00  0.00     0.167 HD
ENDBRANCH  13  28
TORSDOF 3
ENDMDL
MODEL 9
REMARK VINA RESULT:    -8.312      2.121      9.055
REMARK INTER + INTRA:         -10.849
REMARK INTER:                  -9.770
REMARK INTRA:                  -1.079
REMARK UNBOUND:                -1.079
REMARK  3 active torsions:
REMARK  status: ('A' for Active; 'I' for Inactive)
REMARK       I    between atoms: C_2  and  N_3 
REMARK    1  A    between atoms: C_2  and  C_27 
REMARK    2  A    between atoms: N_3  and  C_4 
REMARK    3  A    between atoms: C_16  and  C_17 
ROOT
HETATM    1  C   UNL     1       3.799   5.881  23.261  0.00  0.00     0.153 A 
HETATM    2  C   UNL     1       3.884   6.944  22.188  0.00  0.00    -0.020 A 
HETATM    3  C   UNL     1       4.381   8.235  22.337  0.00  0.00     0.010 A 
HETATM    4  C   UNL     1       4.399   9.069  21.223  0.00  0.00     0.001 A 
HETATM    5  C   UNL     1       3.952   8.593  19.987  0.00  0.00     0.001 A 
HETATM    6  C   UNL     1       3.472   7.282  19.850  0.00  0.00     0.013 A 
HETATM    7  C   UNL     1       3.398   6.450  20.957  0.00  0.00    -0.016 A 
HETATM    8  C   UNL     1       2.923   5.070  21.143  0.00  0.00    -0.003 A 
HETATM    9  C   UNL     1       3.193   4.717  22.497  0.00  0.00    -0.019 A 
HETATM   10  C   UNL     1       2.918   3.461  23.019  0.00  0.00     0.010 A 
HETATM   11  C   UNL     1       2.329   2.522  22.187  0.00  0.00     0.002 A 
HETATM   12  C   UNL     1       2.015   2.854  20.859  0.00  0.00     0.016 A 
HETATM   13  C   UNL     1       2.298   4.129  20.307  0.00  0.00     0.022 A 
ENDROOT
BRANCH   1  14
HETATM   14  N   UNL     1       2.941   6.320  24.336  0.00  0.00    -0.344 N 
HETATM   15  C   UNL     1       3.459   6.783  25.523  0.00  0.00     0.253 C 
HETATM   16  O   UNL     1       4.662   6.841  25.747  0.00  0.00    -0.268 OA
HETATM   17  H   UNL     1       1.971   6.048  24.274  0.00  0.00     0.163 HD
BRANCH  15  18
HETATM   18  C   UNL     1       2.473   7.228  26.539  0.00  0.00     0.047 A 
HETATM   19  C   UNL     1       2.319   6.550  27.757  0.00  0.00     0.037 A 
HETATM   20  C   UNL     1       1.334   6.970  28.637  0.00  0.00     0.120 A 
HETATM   21  N   UNL     1       0.477   7.992  28.428  0.00  0.00    -0.242 NA
HETATM   22  C   UNL     1       0.661   8.604  27.245  0.00  0.00     0.138 A 
HETATM   23  N   UNL     1      -0.096   9.654  26.802  0.00  0.00    -0.350 N 
HETATM   24  C   UNL     1       1.604   8.304  26.268  0.00  0.00     0.027 A 
HETATM   25  H   UNL     1      -0.866  10.047  27.323  0.00  0.00     0.166 HD
HETATM   26  C   UNL     1       0.352  10.063  25.572  0.00  0.00     0.090 A 
HETATM   27  C   UNL     1       1.400   9.241  25.214  0.00  0.00     0.033 A 
ENDBRANCH  15  18
ENDBRANCH   1  14
BRANCH  13  28
HETATM   28  C   UNL     1       1.874   4.412  18.928  0.00  0.00     0.140 A 
HETATM   29  N   UNL     1       2.265   3.773  17.844  0.00  0.00    -0.227 NA
HETATM   30  C   UNL     1       1.551   4.290  16.797  0.00  0.00     0.103 A 
HETATM   31  C   UNL     1       1.494   3.895  15.458  0.00  0.00     0.150 A 
HETATM   32  C   UNL     1       0.783   5.366  17.217  0.00  0.00     0.065 A 
HETATM   33  N   UNL     1       0.714   4.579  14.579  0.00  0.00    -0.271 NA
HETATM   34  C   UNL     1       0.012   5.646  15.028  0.00  0.00     0.118 A 
HETATM   35  C   UNL     1      -0.008   6.104  16.342  0.00  0.00     0.051 A 
HETATM   36  N   UNL     1       1.012   5.433  18.569  0.00  0.00    -0.338 N 
HETATM   37  H   UNL     1       0.582   6.086  19.207  0.00  0.00     0.167 HD
ENDBRANCH  13  28
TORSDOF 3
ENDMDL
