MODEL 1
REMARK VINA RESULT:    -9.223      0.000      0.000
REMARK INTER + INTRA:         -12.575
REMARK INTER:                 -11.294
REMARK INTRA:                  -1.282
REMARK UNBOUND:                -0.926
REMARK  5 active torsions:
REMARK  status: ('A' for Active; 'I' for Inactive)
REMARK    1  A    between atoms: C_6  and  N_7 
REMARK       I    between atoms: N_7  and  C_9 
REMARK    2  A    between atoms: C_9  and  C_11 
REMARK    3  A    between atoms: C_13  and  O_14 
REMARK    4  A    between atoms: C_21  and  C_22 
REMARK    5  A    between atoms: C_22  and  C_23 
ROOT
HETATM    1  C   UNL     1       2.254   7.901  25.023  0.00  0.00     0.066 C 
HETATM    2  C   UNL     1       0.935   8.405  24.996  0.00  0.00     0.035 C 
HETATM    3  C   UNL     1       2.893   7.775  26.272  0.00  0.00     0.083 C 
HETATM    4  C   UNL     1       2.302   8.220  27.461  0.00  0.00     0.069 C 
HETATM    5  C   UNL     1       1.070   8.867  27.352  0.00  0.00     0.065 A 
HETATM    6  C   UNL     1       0.385   9.004  26.149  0.00  0.00     0.020 A 
HETATM    7  N   UNL     1       0.275   9.465  28.286  0.00  0.00    -0.277 N 
HETATM    8  H   UNL     1       0.431   9.516  29.286  0.00  0.00     0.189 HD
HETATM    9  N   UNL     1      -0.807  10.076  27.780  0.00  0.00    -0.178 NA
HETATM   10  C   UNL     1      -0.745   9.832  26.459  0.00  0.00     0.071 A 
ENDROOT
BRANCH   1  11
HETATM   11  C   UNL     1       3.001   7.480  23.775  0.00  0.00     0.260 C 
HETATM   12  N   UNL     1       3.766   8.419  23.021  0.00  0.00    -0.318 N 
HETATM   13  C   UNL     1       3.956   9.800  23.483  0.00  0.00     0.159 C 
HETATM   14  O   UNL     1       2.910   6.273  23.524  0.00  0.00    -0.267 OA
BRANCH  12  15
HETATM   15  C   UNL     1       4.409   8.082  21.755  0.00  0.00     0.037 A 
HETATM   16  C   UNL     1       5.603   7.325  21.738  0.00  0.00     0.029 A 
HETATM   17  C   UNL     1       6.262   6.982  20.551  0.00  0.00     0.002 A 
HETATM   18  C   UNL     1       5.753   7.400  19.332  0.00  0.00     0.000 A 
HETATM   19  C   UNL     1       4.578   8.138  19.308  0.00  0.00     0.002 A 
HETATM   20  C   UNL     1       3.913   8.470  20.502  0.00  0.00     0.029 A 
ENDBRANCH  12  15
ENDBRANCH   1  11
BRANCH   3  21
HETATM   21  O   UNL     1       4.136   7.208  26.426  0.00  0.00    -0.360 OA
HETATM   22  H   UNL     1       4.689   7.834  26.948  0.00  0.00     0.217 HD
ENDBRANCH   3  21
BRANCH  10  23
HETATM   23  C   UNL     1      -1.791  10.443  25.560  0.00  0.00     0.100 C 
BRANCH  23  24
HETATM   24  C   UNL     1      -1.200  11.530  24.666  0.00  0.00    -0.052 A 
HETATM   25  C   UNL     1      -0.320  12.521  25.128  0.00  0.00     0.007 A 
HETATM   26  C   UNL     1       0.203  13.485  24.263  0.00  0.00     0.001 A 
HETATM   27  C   UNL     1      -0.209  13.539  22.936  0.00  0.00     0.007 A 
HETATM   28  C   UNL     1      -1.184  12.655  22.469  0.00  0.00    -0.061 A 
HETATM   29  C   UNL     1      -1.645  11.633  23.324  0.00  0.00     0.014 A 
HETATM   30  C   UNL     1      -1.717  12.830  21.074  0.00  0.00     0.048 C 
ENDBRANCH  23  24
ENDBRANCH  10  23
TORSDOF 5
ENDMDL
MODEL 2
REMARK VINA RESULT:    -9.202      0.890      1.106
REMARK INTER + INTRA:         -12.549
REMARK INTER:                 -11.415
REMARK INTRA:                  -1.134
REMARK UNBOUND:                -0.926
REMARK  5 active torsions:
REMARK  status: ('A' for Active; 'I' for Inactive)
REMARK    1  A    between atoms: C_6  and  N_7 
REMARK       I    between atoms: N_7  and  C_9 
REMARK    2  A    between atoms: C_9  and  C_11 
REMARK    3  A    between atoms: C_13  and  O_14 
REMARK    4  A    between atoms: C_21  and  C_22 
REMARK    5  A    between atoms: C_22  and  C_23 
ROOT
HETATM    1  C   UNL     1       2.379   8.549  24.902  0.00  0.00     0.066 C 
HETATM    2  C   UNL     1       1.022   8.940  24.935  0.00  0.00     0.035 C 
HETATM    3  C   UNL     1       2.949   8.024  26.079  0.00  0.00     0.083 C 
HETATM    4  C   UNL     1       2.246   7.971  27.288  0.00  0.00     0.069 C 
HETATM    5  C   UNL     1       0.968   8.530  27.304  0.00  0.00     0.065 A 
HETATM    6  C   UNL     1       0.348   9.046  26.170  0.00  0.00     0.020 A 
HETATM    7  N   UNL     1       0.063   8.698  28.312  0.00  0.00    -0.277 N 
HETATM    8  H   UNL     1       0.152   8.395  29.275  0.00  0.00     0.189 HD
HETATM    9  N   UNL     1      -1.039   9.377  27.958  0.00  0.00    -0.178 NA
HETATM   10  C   UNL     1      -0.873   9.630  26.648  0.00  0.00     0.071 A 
ENDROOT
BRANCH   1  11
HETATM   11  C   UNL     1       3.237   8.656  23.660  0.00  0.00     0.260 C 
HETATM   12  N   UNL     1       3.489   7.517  22.838  0.00  0.00    -0.318 N 
HETATM   13  C   UNL     1       2.836   6.227  23.095  0.00  0.00     0.159 C 
HETATM   14  O   UNL     1       3.639   9.802  23.429  0.00  0.00    -0.267 OA
BRANCH  12  15
HETATM   15  C   UNL     1       4.398   7.550  21.696  0.00  0.00     0.037 A 
HETATM   16  C   UNL     1       5.695   6.996  21.797  0.00  0.00     0.029 A 
HETATM   17  C   UNL     1       6.605   7.009  20.733  0.00  0.00     0.002 A 
HETATM   18  C   UNL     1       6.253   7.594  19.528  0.00  0.00     0.000 A 
HETATM   19  C   UNL     1       4.984   8.142  19.388  0.00  0.00     0.002 A 
HETATM   20  C   UNL     1       4.069   8.115  20.455  0.00  0.00     0.029 A 
ENDBRANCH  12  15
ENDBRANCH   1  11
BRANCH   3  21
HETATM   21  O   UNL     1       4.228   7.524  26.135  0.00  0.00    -0.360 OA
HETATM   22  H   UNL     1       4.804   8.110  25.593  0.00  0.00     0.217 HD
ENDBRANCH   3  21
BRANCH  10  23
HETATM   23  C   UNL     1      -1.914  10.453  25.932  0.00  0.00     0.100 C 
BRANCH  23  24
HETATM   24  C   UNL     1      -1.277  11.494  25.015  0.00  0.00    -0.052 A 
HETATM   25  C   UNL     1      -0.382  12.478  25.462  0.00  0.00     0.007 A 
HETATM   26  C   UNL     1       0.182  13.399  24.577  0.00  0.00     0.001 A 
HETATM   27  C   UNL     1      -0.200  13.417  23.240  0.00  0.00     0.007 A 
HETATM   28  C   UNL     1      -1.186  12.542  22.782  0.00  0.00    -0.061 A 
HETATM   29  C   UNL     1      -1.690  11.561  23.661  0.00  0.00     0.014 A 
HETATM   30  C   UNL     1      -1.684  12.682  21.370  0.00  0.00     0.048 C 
ENDBRANCH  23  24
ENDBRANCH  10  23
TORSDOF 5
ENDMDL
MODEL 3
REMARK VINA RESULT:    -9.061      0.331      1.320
REMARK INTER + INTRA:         -12.371
REMARK INTER:                 -11.149
REMARK INTRA:                  -1.222
REMARK UNBOUND:                -0.926
REMARK  5 active torsions:
REMARK  status: ('A' for Active; 'I' for Inactive)
REMARK    1  A    between atoms: C_6  and  N_7 
REMARK       I    between atoms: N_7  and  C_9 
REMARK    2  A    between atoms: C_9  and  C_11 
REMARK    3  A    between atoms: C_13  and  O_14 
REMARK    4  A    between atoms: C_21  and  C_22 
REMARK    5  A    between atoms: C_22  and  C_23 
ROOT
HETATM    1  C   UNL     1       2.241   7.893  25.057  0.00  0.00     0.066 C 
HETATM    2  C   UNL     1       0.900   8.336  25.049  0.00  0.00     0.035 C 
HETATM    3  C   UNL     1       2.910   7.820  26.295  0.00  0.00     0.083 C 
HETATM    4  C   UNL     1       2.323   8.259  27.487  0.00  0.00     0.069 C 
HETATM    5  C   UNL     1       1.061   8.847  27.393  0.00  0.00     0.065 A 
HETATM    6  C   UNL     1       0.346   8.930  26.202  0.00  0.00     0.020 A 
HETATM    7  N   UNL     1       0.257   9.425  28.333  0.00  0.00    -0.277 N 
HETATM    8  H   UNL     1       0.431   9.502  29.329  0.00  0.00     0.189 HD
HETATM    9  N   UNL     1      -0.861   9.977  27.838  0.00  0.00    -0.178 NA
HETATM   10  C   UNL     1      -0.815   9.711  26.522  0.00  0.00     0.071 A 
ENDROOT
BRANCH   1  11
HETATM   11  C   UNL     1       2.981   7.483  23.802  0.00  0.00     0.260 C 
HETATM   12  N   UNL     1       3.746   8.428  23.055  0.00  0.00    -0.318 N 
HETATM   13  C   UNL     1       3.943   9.803  23.532  0.00  0.00     0.159 C 
HETATM   14  O   UNL     1       2.885   6.280  23.538  0.00  0.00    -0.267 OA
BRANCH  12  15
HETATM   15  C   UNL     1       4.384   8.103  21.783  0.00  0.00     0.037 A 
HETATM   16  C   UNL     1       5.590   7.367  21.754  0.00  0.00     0.029 A 
HETATM   17  C   UNL     1       6.243   7.036  20.560  0.00  0.00     0.002 A 
HETATM   18  C   UNL     1       5.716   7.446  19.347  0.00  0.00     0.000 A 
HETATM   19  C   UNL     1       4.528   8.165  19.335  0.00  0.00     0.002 A 
HETATM   20  C   UNL     1       3.869   8.484  20.535  0.00  0.00     0.029 A 
ENDBRANCH  12  15
ENDBRANCH   1  11
BRANCH   3  21
HETATM   21  O   UNL     1       4.181   7.314  26.432  0.00  0.00    -0.360 OA
HETATM   22  H   UNL     1       4.670   7.895  27.059  0.00  0.00     0.217 HD
ENDBRANCH   3  21
BRANCH  10  23
HETATM   23  C   UNL     1      -1.905  10.257  25.633  0.00  0.00     0.100 C 
BRANCH  23  24
HETATM   24  C   UNL     1      -1.386  11.360  24.716  0.00  0.00    -0.052 A 
HETATM   25  C   UNL     1      -1.751  11.482  23.366  0.00  0.00     0.007 A 
HETATM   26  C   UNL     1      -1.256  12.520  22.574  0.00  0.00     0.001 A 
HETATM   27  C   UNL     1      -0.315  13.409  23.083  0.00  0.00     0.007 A 
HETATM   28  C   UNL     1       0.175  13.242  24.379  0.00  0.00    -0.061 A 
HETATM   29  C   UNL     1      -0.390  12.245  25.200  0.00  0.00     0.014 A 
HETATM   30  C   UNL     1       1.296  14.126  24.852  0.00  0.00     0.048 C 
ENDBRANCH  23  24
ENDBRANCH  10  23
TORSDOF 5
ENDMDL
MODEL 4
REMARK VINA RESULT:    -9.008      0.853      0.994
REMARK INTER + INTRA:         -12.304
REMARK INTER:                 -11.315
REMARK INTRA:                  -0.989
REMARK UNBOUND:                -0.926
REMARK  5 active torsions:
REMARK  status: ('A' for Active; 'I' for Inactive)
REMARK    1  A    between atoms: C_6  and  N_7 
REMARK       I    between atoms: N_7  and  C_9 
REMARK    2  A    between atoms: C_9  and  C_11 
REMARK    3  A    between atoms: C_13  and  O_14 
REMARK    4  A    between atoms: C_21  and  C_22 
REMARK    5  A    between atoms: C_22  and  C_23 
ROOT
HETATM    1  C   UNL     1       1.699   8.321  25.568  0.00  0.00     0.066 C 
HETATM    2  C   UNL     1       0.401   8.784  25.256  0.00  0.00     0.035 C 
HETATM    3  C   UNL     1       2.107   8.344  26.917  0.00  0.00     0.083 C 
HETATM    4  C   UNL     1       1.311   8.896  27.927  0.00  0.00     0.069 C 
HETATM    5  C   UNL     1       0.113   9.495  27.535  0.00  0.00     0.065 A 
HETATM    6  C   UNL     1      -0.349   9.486  26.222  0.00  0.00     0.020 A 
HETATM    7  N   UNL     1      -0.840  10.167  28.244  0.00  0.00    -0.277 N 
HETATM    8  H   UNL     1      -0.865  10.327  29.244  0.00  0.00     0.189 HD
HETATM    9  N   UNL     1      -1.820  10.693  27.492  0.00  0.00    -0.178 NA
HETATM   10  C   UNL     1      -1.523  10.312  26.237  0.00  0.00     0.071 A 
ENDROOT
BRANCH   1  11
HETATM   11  C   UNL     1       2.658   7.790  24.525  0.00  0.00     0.260 C 
HETATM   12  N   UNL     1       3.491   8.671  23.773  0.00  0.00    -0.318 N 
HETATM   13  C   UNL     1       3.538  10.111  24.058  0.00  0.00     0.159 C 
HETATM   14  O   UNL     1       2.665   6.557  24.437  0.00  0.00    -0.267 OA
BRANCH  12  15
HETATM   15  C   UNL     1       4.348   8.214  22.683  0.00  0.00     0.037 A 
HETATM   16  C   UNL     1       5.198   7.099  22.861  0.00  0.00     0.029 A 
HETATM   17  C   UNL     1       6.043   6.627  21.848  0.00  0.00     0.002 A 
HETATM   18  C   UNL     1       6.077   7.266  20.621  0.00  0.00     0.000 A 
HETATM   19  C   UNL     1       5.250   8.361  20.406  0.00  0.00     0.002 A 
HETATM   20  C   UNL     1       4.394   8.824  21.421  0.00  0.00     0.029 A 
ENDBRANCH  12  15
ENDBRANCH   1  11
BRANCH   3  21
HETATM   21  O   UNL     1       3.307   7.830  27.347  0.00  0.00    -0.360 OA
HETATM   22  H   UNL     1       3.866   7.667  26.553  0.00  0.00     0.217 HD
ENDBRANCH   3  21
BRANCH  10  23
HETATM   23  C   UNL     1      -2.396  10.797  25.107  0.00  0.00     0.100 C 
BRANCH  23  24
HETATM   24  C   UNL     1      -1.652  11.768  24.196  0.00  0.00    -0.052 A 
HETATM   25  C   UNL     1      -0.649  12.640  24.646  0.00  0.00     0.007 A 
HETATM   26  C   UNL     1       0.010  13.501  23.765  0.00  0.00     0.001 A 
HETATM   27  C   UNL     1      -0.376  13.576  22.431  0.00  0.00     0.007 A 
HETATM   28  C   UNL     1      -1.458  12.822  21.972  0.00  0.00    -0.061 A 
HETATM   29  C   UNL     1      -2.064  11.895  22.845  0.00  0.00     0.014 A 
HETATM   30  C   UNL     1      -1.946  13.032  20.566  0.00  0.00     0.048 C 
ENDBRANCH  23  24
ENDBRANCH  10  23
TORSDOF 5
ENDMDL
MODEL 5
REMARK VINA RESULT:    -8.130      2.967      7.621
REMARK INTER + INTRA:         -11.195
REMARK INTER:                 -10.285
REMARK INTRA:                  -0.909
REMARK UNBOUND:                -0.926
REMARK  5 active torsions:
REMARK  status: ('A' for Active; 'I' for Inactive)
REMARK    1  A    between atoms: C_6  and  N_7 
REMARK       I    between atoms: N_7  and  C_9 
REMARK    2  A    between atoms: C_9  and  C_11 
REMARK    3  A    between atoms: C_13  and  O_14 
REMARK    4  A    between atoms: C_21  and  C_22 
REMARK    5  A    between atoms: C_22  and  C_23 
ROOT
HETATM    1  C   UNL     1       3.994   7.442  23.041  0.00  0.00     0.066 C 
HETATM    2  C   UNL     1       3.616   8.114  21.857  0.00  0.00     0.035 C 
HETATM    3  C   UNL     1       5.228   6.761  23.054  0.00  0.00     0.083 C 
HETATM    4  C   UNL     1       6.032   6.653  21.913  0.00  0.00     0.069 C 
HETATM    5  C   UNL     1       5.526   7.190  20.728  0.00  0.00     0.065 A 
HETATM    6  C   UNL     1       4.324   7.887  20.659  0.00  0.00     0.020 A 
HETATM    7  N   UNL     1       6.016   7.195  19.454  0.00  0.00    -0.277 N 
HETATM    8  H   UNL     1       6.901   6.820  19.133  0.00  0.00     0.189 HD
HETATM    9  N   UNL     1       5.186   7.733  18.546  0.00  0.00    -0.178 NA
HETATM   10  C   UNL     1       4.123   8.140  19.261  0.00  0.00     0.071 A 
ENDROOT
BRANCH   1  11
HETATM   11  C   UNL     1       3.142   7.433  24.292  0.00  0.00     0.260 C 
HETATM   12  N   UNL     1       2.794   8.648  24.955  0.00  0.00    -0.318 N 
HETATM   13  C   UNL     1       3.147   9.957  24.392  0.00  0.00     0.159 C 
HETATM   14  O   UNL     1       2.764   6.306  24.629  0.00  0.00    -0.267 OA
BRANCH  12  15
HETATM   15  C   UNL     1       2.070   8.678  26.222  0.00  0.00     0.037 A 
HETATM   16  C   UNL     1       0.675   8.904  26.244  0.00  0.00     0.029 A 
HETATM   17  C   UNL     1      -0.063   8.950  27.434  0.00  0.00     0.002 A 
HETATM   18  C   UNL     1       0.575   8.785  28.651  0.00  0.00     0.000 A 
HETATM   19  C   UNL     1       1.945   8.553  28.669  0.00  0.00     0.002 A 
HETATM   20  C   UNL     1       2.680   8.495  27.473  0.00  0.00     0.029 A 
ENDBRANCH  12  15
ENDBRANCH   1  11
BRANCH   3  21
HETATM   21  O   UNL     1       5.739   6.156  24.177  0.00  0.00    -0.360 OA
HETATM   22  H   UNL     1       6.244   6.834  24.681  0.00  0.00     0.217 HD
ENDBRANCH   3  21
BRANCH  10  23
HETATM   23  C   UNL     1       2.947   8.739  18.531  0.00  0.00     0.100 C 
BRANCH  23  24
HETATM   24  C   UNL     1       2.083   7.665  17.875  0.00  0.00    -0.052 A 
HETATM   25  C   UNL     1       1.804   7.627  16.500  0.00  0.00     0.007 A 
HETATM   26  C   UNL     1       1.018   6.613  15.949  0.00  0.00     0.001 A 
HETATM   27  C   UNL     1       0.416   5.664  16.768  0.00  0.00     0.007 A 
HETATM   28  C   UNL     1       0.559   5.744  18.155  0.00  0.00    -0.061 A 
HETATM   29  C   UNL     1       1.421   6.719  18.697  0.00  0.00     0.014 A 
HETATM   30  C   UNL     1      -0.220   4.794  19.022  0.00  0.00     0.048 C 
ENDBRANCH  23  24
ENDBRANCH  10  23
TORSDOF 5
ENDMDL
MODEL 6
REMARK VINA RESULT:    -8.101      2.499      7.427
REMARK INTER + INTRA:         -11.158
REMARK INTER:                 -10.267
REMARK INTRA:                  -0.891
REMARK UNBOUND:                -0.926
REMARK  5 active torsions:
REMARK  status: ('A' for Active; 'I' for Inactive)
REMARK    1  A    between atoms: C_6  and  N_7 
REMARK       I    between atoms: N_7  and  C_9 
REMARK    2  A    between atoms: C_9  and  C_11 
REMARK    3  A    between atoms: C_13  and  O_14 
REMARK    4  A    between atoms: C_21  and  C_22 
REMARK    5  A    between atoms: C_22  and  C_23 
ROOT
HETATM    1  C   UNL     1       3.877   8.408  23.720  0.00  0.00     0.066 C 
HETATM    2  C   UNL     1       4.038   8.647  22.338  0.00  0.00     0.035 C 
HETATM    3  C   UNL     1       4.723   7.465  24.336  0.00  0.00     0.083 C 
HETATM    4  C   UNL     1       5.639   6.697  23.606  0.00  0.00     0.069 C 
HETATM    5  C   UNL     1       5.634   6.853  22.219  0.00  0.00     0.065 A 
HETATM    6  C   UNL     1       4.834   7.781  21.560  0.00  0.00     0.020 A 
HETATM    7  N   UNL     1       6.338   6.224  21.234  0.00  0.00    -0.277 N 
HETATM    8  H   UNL     1       7.057   5.518  21.345  0.00  0.00     0.189 HD
HETATM    9  N   UNL     1       5.984   6.580  19.989  0.00  0.00    -0.178 NA
HETATM   10  C   UNL     1       5.036   7.518  20.164  0.00  0.00     0.071 A 
ENDROOT
BRANCH   1  11
HETATM   11  C   UNL     1       2.850   9.129  24.567  0.00  0.00     0.260 C 
HETATM   12  N   UNL     1       1.642   8.485  24.968  0.00  0.00    -0.318 N 
HETATM   13  C   UNL     1       1.396   7.066  24.677  0.00  0.00     0.159 C 
HETATM   14  O   UNL     1       3.187  10.273  24.892  0.00  0.00    -0.267 OA
BRANCH  12  15
HETATM   15  C   UNL     1       0.577   9.175  25.690  0.00  0.00     0.037 A 
HETATM   16  C   UNL     1       0.456   9.038  27.091  0.00  0.00     0.029 A 
HETATM   17  C   UNL     1      -0.552   9.674  27.827  0.00  0.00     0.002 A 
HETATM   18  C   UNL     1      -1.487  10.463  27.180  0.00  0.00     0.000 A 
HETATM   19  C   UNL     1      -1.396  10.629  25.804  0.00  0.00     0.002 A 
HETATM   20  C   UNL     1      -0.376   9.999  25.071  0.00  0.00     0.029 A 
ENDBRANCH  12  15
ENDBRANCH   1  11
BRANCH   3  21
HETATM   21  O   UNL     1       4.720   7.223  25.689  0.00  0.00    -0.360 OA
HETATM   22  H   UNL     1       5.394   7.811  26.100  0.00  0.00     0.217 HD
ENDBRANCH   3  21
BRANCH  10  23
HETATM   23  C   UNL     1       4.357   8.096  18.947  0.00  0.00     0.100 C 
BRANCH  23  24
HETATM   24  C   UNL     1       3.023   7.411  18.667  0.00  0.00    -0.052 A 
HETATM   25  C   UNL     1       2.059   7.922  17.783  0.00  0.00     0.007 A 
HETATM   26  C   UNL     1       0.859   7.247  17.553  0.00  0.00     0.001 A 
HETATM   27  C   UNL     1       0.551   6.092  18.264  0.00  0.00     0.007 A 
HETATM   28  C   UNL     1       1.423   5.623  19.249  0.00  0.00    -0.061 A 
HETATM   29  C   UNL     1       2.670   6.261  19.417  0.00  0.00     0.014 A 
HETATM   30  C   UNL     1       1.000   4.460  20.102  0.00  0.00     0.048 C 
ENDBRANCH  23  24
ENDBRANCH  10  23
TORSDOF 5
ENDMDL
MODEL 7
REMARK VINA RESULT:    -8.069      3.595      7.729
REMARK INTER + INTRA:         -11.118
REMARK INTER:                 -10.136
REMARK INTRA:                  -0.982
REMARK UNBOUND:                -0.926
REMARK  5 active torsions:
REMARK  status: ('A' for Active; 'I' for Inactive)
REMARK    1  A    between atoms: C_6  and  N_7 
REMARK       I    between atoms: N_7  and  C_9 
REMARK    2  A    between atoms: C_9  and  C_11 
REMARK    3  A    between atoms: C_13  and  O_14 
REMARK    4  A    between atoms: C_21  and  C_22 
REMARK    5  A    between atoms: C_22  and  C_23 
ROOT
HETATM    1  C   UNL     1       4.063   6.643  22.787  0.00  0.00     0.066 C 
HETATM    2  C   UNL     1       3.598   7.473  21.743  0.00  0.00     0.035 C 
HETATM    3  C   UNL     1       5.410   6.230  22.759  0.00  0.00     0.083 C 
HETATM    4  C   UNL     1       6.261   6.534  21.690  0.00  0.00     0.069 C 
HETATM    5  C   UNL     1       5.700   7.209  20.605  0.00  0.00     0.065 A 
HETATM    6  C   UNL     1       4.383   7.657  20.585  0.00  0.00     0.020 A 
HETATM    7  N   UNL     1       6.225   7.591  19.404  0.00  0.00    -0.277 N 
HETATM    8  H   UNL     1       7.180   7.475  19.085  0.00  0.00     0.189 HD
HETATM    9  N   UNL     1       5.336   8.143  18.564  0.00  0.00    -0.178 NA
HETATM   10  C   UNL     1       4.185   8.167  19.259  0.00  0.00     0.071 A 
ENDROOT
BRANCH   1  11
HETATM   11  C   UNL     1       3.186   6.194  23.936  0.00  0.00     0.260 C 
HETATM   12  N   UNL     1       2.601   7.139  24.830  0.00  0.00    -0.318 N 
HETATM   13  C   UNL     1       2.728   8.585  24.608  0.00  0.00     0.159 C 
HETATM   14  O   UNL     1       3.009   4.971  23.978  0.00  0.00    -0.267 OA
BRANCH  12  15
HETATM   15  C   UNL     1       1.841   6.745  26.013  0.00  0.00     0.037 A 
HETATM   16  C   UNL     1       0.428   6.775  25.999  0.00  0.00     0.029 A 
HETATM   17  C   UNL     1      -0.345   6.414  27.109  0.00  0.00     0.002 A 
HETATM   18  C   UNL     1       0.273   6.021  28.284  0.00  0.00     0.000 A 
HETATM   19  C   UNL     1       1.660   5.972  28.334  0.00  0.00     0.002 A 
HETATM   20  C   UNL     1       2.432   6.323  27.213  0.00  0.00     0.029 A 
ENDBRANCH  12  15
ENDBRANCH   1  11
BRANCH   3  21
HETATM   21  O   UNL     1       5.994   5.503  23.769  0.00  0.00    -0.360 OA
HETATM   22  H   UNL     1       6.921   5.307  23.502  0.00  0.00     0.217 HD
ENDBRANCH   3  21
BRANCH  10  23
HETATM   23  C   UNL     1       2.938   8.672  18.576  0.00  0.00     0.100 C 
BRANCH  23  24
HETATM   24  C   UNL     1       2.193   7.549  17.861  0.00  0.00    -0.052 A 
HETATM   25  C   UNL     1       2.155   7.409  16.465  0.00  0.00     0.007 A 
HETATM   26  C   UNL     1       1.468   6.353  15.862  0.00  0.00     0.001 A 
HETATM   27  C   UNL     1       0.727   5.463  16.631  0.00  0.00     0.007 A 
HETATM   28  C   UNL     1       0.629   5.645  18.012  0.00  0.00    -0.061 A 
HETATM   29  C   UNL     1       1.392   6.661  18.623  0.00  0.00     0.014 A 
HETATM   30  C   UNL     1      -0.295   4.757  18.799  0.00  0.00     0.048 C 
ENDBRANCH  23  24
ENDBRANCH  10  23
TORSDOF 5
ENDMDL
MODEL 8
REMARK VINA RESULT:    -7.979      2.512      2.713
REMARK INTER + INTRA:         -11.004
REMARK INTER:                 -10.078
REMARK INTRA:                  -0.926
REMARK UNBOUND:                -0.926
REMARK  5 active torsions:
REMARK  status: ('A' for Active; 'I' for Inactive)
REMARK    1  A    between atoms: C_6  and  N_7 
REMARK       I    between atoms: N_7  and  C_9 
REMARK    2  A    between atoms: C_9  and  C_11 
REMARK    3  A    between atoms: C_13  and  O_14 
REMARK    4  A    between atoms: C_21  and  C_22 
REMARK    5  A    between atoms: C_22  and  C_23 
ROOT
HETATM    1  C   UNL     1       1.118   7.398  27.167  0.00  0.00     0.066 C 
HETATM    2  C   UNL     1      -0.002   8.004  26.557  0.00  0.00     0.035 C 
HETATM    3  C   UNL     1       1.418   7.744  28.500  0.00  0.00     0.083 C 
HETATM    4  C   UNL     1       0.704   8.729  29.193  0.00  0.00     0.069 C 
HETATM    5  C   UNL     1      -0.281   9.416  28.483  0.00  0.00     0.065 A 
HETATM    6  C   UNL     1      -0.632   9.105  27.172  0.00  0.00     0.020 A 
HETATM    7  N   UNL     1      -1.095  10.454  28.834  0.00  0.00    -0.277 N 
HETATM    8  H   UNL     1      -1.156  10.911  29.736  0.00  0.00     0.189 HD
HETATM    9  N   UNL     1      -1.860  10.918  27.833  0.00  0.00    -0.178 NA
HETATM   10  C   UNL     1      -1.570  10.122  26.790  0.00  0.00     0.071 A 
ENDROOT
BRANCH   1  11
HETATM   11  C   UNL     1       1.997   6.389  26.461  0.00  0.00     0.260 C 
HETATM   12  N   UNL     1       2.904   6.791  25.435  0.00  0.00    -0.318 N 
HETATM   13  C   UNL     1       3.106   8.207  25.103  0.00  0.00     0.159 C 
HETATM   14  O   UNL     1       1.875   5.236  26.888  0.00  0.00    -0.267 OA
BRANCH  12  15
HETATM   15  C   UNL     1       3.688   5.840  24.653  0.00  0.00     0.037 A 
HETATM   16  C   UNL     1       5.089   5.758  24.821  0.00  0.00     0.029 A 
HETATM   17  C   UNL     1       5.885   4.867  24.090  0.00  0.00     0.002 A 
HETATM   18  C   UNL     1       5.305   4.033  23.149  0.00  0.00     0.000 A 
HETATM   19  C   UNL     1       3.930   4.079  22.961  0.00  0.00     0.002 A 
HETATM   20  C   UNL     1       3.133   4.966  23.706  0.00  0.00     0.029 A 
ENDBRANCH  12  15
ENDBRANCH   1  11
BRANCH   3  21
HETATM   21  O   UNL     1       2.423   7.147  29.223  0.00  0.00    -0.360 OA
HETATM   22  H   UNL     1       2.800   7.825  29.829  0.00  0.00     0.217 HD
ENDBRANCH   3  21
BRANCH  10  23
HETATM   23  C   UNL     1      -2.214  10.412  25.457  0.00  0.00     0.100 C 
BRANCH  23  24
HETATM   24  C   UNL     1      -1.433  11.459  24.669  0.00  0.00    -0.052 A 
HETATM   25  C   UNL     1      -0.504  12.335  25.252  0.00  0.00     0.007 A 
HETATM   26  C   UNL     1       0.195  13.267  24.482  0.00  0.00     0.001 A 
HETATM   27  C   UNL     1      -0.082  13.410  23.126  0.00  0.00     0.007 A 
HETATM   28  C   UNL     1      -1.093  12.651  22.534  0.00  0.00    -0.061 A 
HETATM   29  C   UNL     1      -1.735  11.655  23.298  0.00  0.00     0.014 A 
HETATM   30  C   UNL     1      -1.470  12.929  21.106  0.00  0.00     0.048 C 
ENDBRANCH  23  24
ENDBRANCH  10  23
TORSDOF 5
ENDMDL
