MODEL 1
REMARK VINA RESULT:   -10.068      0.000      0.000
REMARK INTER + INTRA:         -14.491
REMARK INTER:                 -11.822
REMARK INTRA:                  -2.669
REMARK UNBOUND:                -0.891
REMARK  7 active torsions:
REMARK  status: ('A' for Active; 'I' for Inactive)
REMARK    1  A    between atoms: C_7  and  C_8 
REMARK    2  A    between atoms: C_8  and  N_9 
REMARK       I    between atoms: N_9  and  C_11 
REMARK    3  A    between atoms: C_11  and  C_13 
REMARK    4  A    between atoms: C_15  and  C_16 
REMARK    5  A    between atoms: N_22  and  C_23 
REMARK    6  A    between atoms: C_30  and  O_31 
REMARK    7  A    between atoms: C_33  and  O_34 
ROOT
HETATM    1  C   UNL     1      -2.792  13.400  20.885  0.00  0.00     0.066 C 
HETATM    2  C   UNL     1      -1.659  14.220  21.100  0.00  0.00     0.038 C 
HETATM    3  C   UNL     1      -1.645  15.556  20.662  0.00  0.00     0.046 C 
HETATM    4  C   UNL     1      -2.836  16.111  20.175  0.00  0.00     0.082 C 
HETATM    5  C   UNL     1      -3.924  15.300  19.893  0.00  0.00     0.075 C 
HETATM    6  C   UNL     1      -3.887  13.942  20.189  0.00  0.00     0.084 C 
ENDROOT
BRANCH   3   7
HETATM    7  C   UNL     1      -0.439  16.430  20.629  0.00  0.00     0.172 C 
HETATM    8  N   UNL     1      -0.270  17.285  19.648  0.00  0.00    -0.151 NA
HETATM    9  N   UNL     1       0.966  17.812  19.867  0.00  0.00    -0.226 N 
HETATM   10  H   UNL     1       1.456  18.362  19.173  0.00  0.00     0.194 HD
HETATM   11  C   UNL     1       1.585  17.187  20.948  0.00  0.00     0.349 C 
HETATM   12  O   UNL     1       2.772  17.294  21.212  0.00  0.00    -0.245 OA
HETATM   13  N   UNL     1       0.612  16.376  21.510  0.00  0.00    -0.244 N 
BRANCH  13  14
HETATM   14  C   UNL     1       0.875  15.485  22.571  0.00  0.00     0.051 A 
HETATM   15  C   UNL     1       0.463  15.818  23.873  0.00  0.00     0.031 A 
HETATM   16  C   UNL     1       0.825  15.032  24.971  0.00  0.00     0.002 A 
HETATM   17  C   UNL     1       1.608  13.903  24.787  0.00  0.00     0.001 A 
HETATM   18  C   UNL     1       1.963  13.519  23.493  0.00  0.00     0.009 A 
HETATM   19  C   UNL     1       1.574  14.274  22.368  0.00  0.00    -0.035 A 
HETATM   20  C   UNL     1       2.025  13.740  21.034  0.00  0.00     0.050 C 
ENDBRANCH  13  14
ENDBRANCH   3   7
BRANCH   4  21
HETATM   21  O   UNL     1      -3.019  17.450  19.956  0.00  0.00    -0.360 OA
HETATM   22  H   UNL     1      -3.983  17.608  19.833  0.00  0.00     0.217 HD
ENDBRANCH   4  21
BRANCH   1  23
HETATM   23  C   UNL     1      -2.878  12.117  21.651  0.00  0.00     0.256 C 
HETATM   24  N   UNL     1      -3.184  12.060  23.011  0.00  0.00    -0.348 N 
HETATM   25  C   UNL     1      -3.573  13.213  23.807  0.00  0.00     0.153 C 
HETATM   26  O   UNL     1      -2.637  11.104  20.992  0.00  0.00    -0.267 OA
BRANCH  24  27
HETATM   27  C   UNL     1      -2.791  10.862  23.761  0.00  0.00     0.164 C 
BRANCH  27  28
HETATM   28  C   UNL     1      -1.381  10.734  24.333  0.00  0.00    -0.034 A 
HETATM   29  C   UNL     1      -0.988  10.857  25.681  0.00  0.00    -0.054 A 
HETATM   30  C   UNL     1      -1.918  11.267  26.786  0.00  0.00     0.049 C 
HETATM   31  C   UNL     1       0.348  10.565  26.045  0.00  0.00     0.007 A 
HETATM   32  C   UNL     1       1.297  10.170  25.105  0.00  0.00     0.001 A 
HETATM   33  C   UNL     1       0.929  10.058  23.774  0.00  0.00     0.001 A 
HETATM   34  C   UNL     1      -0.390  10.328  23.398  0.00  0.00     0.009 A 
ENDBRANCH  27  28
ENDBRANCH  24  27
ENDBRANCH   1  23
BRANCH   6  35
HETATM   35  O   UNL     1      -4.958  13.186  19.811  0.00  0.00    -0.360 OA
HETATM   36  H   UNL     1      -4.615  12.431  19.293  0.00  0.00     0.217 HD
ENDBRANCH   6  35
TORSDOF 7
ENDMDL
MODEL 2
REMARK VINA RESULT:    -9.732      1.498      2.439
REMARK INTER + INTRA:         -14.037
REMARK INTER:                 -12.646
REMARK INTRA:                  -1.391
REMARK UNBOUND:                -0.891
REMARK  7 active torsions:
REMARK  status: ('A' for Active; 'I' for Inactive)
REMARK    1  A    between atoms: C_7  and  C_8 
REMARK    2  A    between atoms: C_8  and  N_9 
REMARK       I    between atoms: N_9  and  C_11 
REMARK    3  A    between atoms: C_11  and  C_13 
REMARK    4  A    between atoms: C_15  and  C_16 
REMARK    5  A    between atoms: N_22  and  C_23 
REMARK    6  A    between atoms: C_30  and  O_31 
REMARK    7  A    between atoms: C_33  and  O_34 
ROOT
HETATM    1  C   UNL     1      -2.813  13.762  21.035  0.00  0.00     0.066 C 
HETATM    2  C   UNL     1      -1.655  14.564  21.162  0.00  0.00     0.038 C 
HETATM    3  C   UNL     1      -1.562  15.802  20.502  0.00  0.00     0.046 C 
HETATM    4  C   UNL     1      -2.706  16.308  19.869  0.00  0.00     0.082 C 
HETATM    5  C   UNL     1      -3.816  15.501  19.677  0.00  0.00     0.075 C 
HETATM    6  C   UNL     1      -3.853  14.215  20.204  0.00  0.00     0.084 C 
ENDROOT
BRANCH   3   7
HETATM    7  C   UNL     1      -0.318  16.612  20.379  0.00  0.00     0.172 C 
HETATM    8  N   UNL     1      -0.154  17.419  19.358  0.00  0.00    -0.151 NA
HETATM    9  N   UNL     1       1.115  17.892  19.499  0.00  0.00    -0.226 N 
HETATM   10  H   UNL     1       1.599  18.388  18.761  0.00  0.00     0.194 HD
HETATM   11  C   UNL     1       1.754  17.277  20.575  0.00  0.00     0.349 C 
HETATM   12  O   UNL     1       2.955  17.334  20.780  0.00  0.00    -0.245 OA
HETATM   13  N   UNL     1       0.769  16.539  21.214  0.00  0.00    -0.244 N 
BRANCH  13  14
HETATM   14  C   UNL     1       1.038  15.677  22.296  0.00  0.00     0.051 A 
HETATM   15  C   UNL     1       0.691  16.074  23.600  0.00  0.00     0.031 A 
HETATM   16  C   UNL     1       1.064  15.315  24.712  0.00  0.00     0.002 A 
HETATM   17  C   UNL     1       1.795  14.149  24.541  0.00  0.00     0.001 A 
HETATM   18  C   UNL     1       2.084  13.704  23.250  0.00  0.00     0.009 A 
HETATM   19  C   UNL     1       1.681  14.432  22.113  0.00  0.00    -0.035 A 
HETATM   20  C   UNL     1       2.059  13.833  20.785  0.00  0.00     0.050 C 
ENDBRANCH  13  14
ENDBRANCH   3   7
BRANCH   4  21
HETATM   21  O   UNL     1      -2.819  17.594  19.415  0.00  0.00    -0.360 OA
HETATM   22  H   UNL     1      -3.208  18.138  20.138  0.00  0.00     0.217 HD
ENDBRANCH   4  21
BRANCH   1  23
HETATM   23  C   UNL     1      -2.989  12.635  22.005  0.00  0.00     0.256 C 
HETATM   24  N   UNL     1      -3.241  12.832  23.364  0.00  0.00    -0.348 N 
HETATM   25  C   UNL     1      -3.483  14.131  23.968  0.00  0.00     0.153 C 
HETATM   26  O   UNL     1      -2.875  11.510  21.517  0.00  0.00    -0.267 OA
BRANCH  24  27
HETATM   27  C   UNL     1      -2.933  11.737  24.291  0.00  0.00     0.164 C 
BRANCH  27  28
HETATM   28  C   UNL     1      -4.057  10.946  24.956  0.00  0.00    -0.034 A 
HETATM   29  C   UNL     1      -4.234  10.698  26.332  0.00  0.00    -0.054 A 
HETATM   30  C   UNL     1      -3.237  11.092  27.384  0.00  0.00     0.049 C 
HETATM   31  C   UNL     1      -5.417  10.062  26.778  0.00  0.00     0.007 A 
HETATM   32  C   UNL     1      -6.413   9.657  25.893  0.00  0.00     0.001 A 
HETATM   33  C   UNL     1      -6.247   9.881  24.536  0.00  0.00     0.001 A 
HETATM   34  C   UNL     1      -5.091  10.522  24.078  0.00  0.00     0.009 A 
ENDBRANCH  27  28
ENDBRANCH  24  27
ENDBRANCH   1  23
BRANCH   6  35
HETATM   35  O   UNL     1      -4.940  13.445  19.909  0.00  0.00    -0.360 OA
HETATM   36  H   UNL     1      -4.631  12.520  19.829  0.00  0.00     0.217 HD
ENDBRANCH   6  35
TORSDOF 7
ENDMDL
MODEL 3
REMARK VINA RESULT:    -9.657      1.296      1.727
REMARK INTER + INTRA:         -13.936
REMARK INTER:                 -12.583
REMARK INTRA:                  -1.352
REMARK UNBOUND:                -0.891
REMARK  7 active torsions:
REMARK  status: ('A' for Active; 'I' for Inactive)
REMARK    1  A    between atoms: C_7  and  C_8 
REMARK    2  A    between atoms: C_8  and  N_9 
REMARK       I    between atoms: N_9  and  C_11 
REMARK    3  A    between atoms: C_11  and  C_13 
REMARK    4  A    between atoms: C_15  and  C_16 
REMARK    5  A    between atoms: N_22  and  C_23 
REMARK    6  A    between atoms: C_30  and  O_31 
REMARK    7  A    between atoms: C_33  and  O_34 
ROOT
HETATM    1  C   UNL     1      -3.172  14.013  22.156  0.00  0.00     0.066 C 
HETATM    2  C   UNL     1      -1.990  14.774  21.998  0.00  0.00     0.038 C 
HETATM    3  C   UNL     1      -1.963  15.891  21.144  0.00  0.00     0.046 C 
HETATM    4  C   UNL     1      -3.173  16.341  20.597  0.00  0.00     0.082 C 
HETATM    5  C   UNL     1      -4.316  15.563  20.686  0.00  0.00     0.075 C 
HETATM    6  C   UNL     1      -4.307  14.376  21.410  0.00  0.00     0.084 C 
ENDROOT
BRANCH   3   7
HETATM    7  C   UNL     1      -0.732  16.618  20.729  0.00  0.00     0.172 C 
HETATM    8  N   UNL     1      -0.739  17.367  19.651  0.00  0.00    -0.151 NA
HETATM    9  N   UNL     1       0.554  17.768  19.508  0.00  0.00    -0.226 N 
HETATM   10  H   UNL     1       0.902  18.201  18.662  0.00  0.00     0.194 HD
HETATM   11  C   UNL     1       1.367  17.165  20.467  0.00  0.00     0.349 C 
HETATM   12  O   UNL     1       2.586  17.158  20.423  0.00  0.00    -0.245 OA
HETATM   13  N   UNL     1       0.498  16.516  21.330  0.00  0.00    -0.244 N 
BRANCH  13  14
HETATM   14  C   UNL     1       0.938  15.690  22.384  0.00  0.00     0.051 A 
HETATM   15  C   UNL     1       0.810  16.133  23.712  0.00  0.00     0.031 A 
HETATM   16  C   UNL     1       1.358  15.408  24.774  0.00  0.00     0.002 A 
HETATM   17  C   UNL     1       2.048  14.231  24.526  0.00  0.00     0.001 A 
HETATM   18  C   UNL     1       2.121  13.741  23.221  0.00  0.00     0.009 A 
HETATM   19  C   UNL     1       1.539  14.434  22.141  0.00  0.00    -0.035 A 
HETATM   20  C   UNL     1       1.693  13.787  20.790  0.00  0.00     0.050 C 
ENDBRANCH  13  14
ENDBRANCH   3   7
BRANCH   4  21
HETATM   21  O   UNL     1      -3.321  17.546  19.965  0.00  0.00    -0.360 OA
HETATM   22  H   UNL     1      -3.116  17.415  19.011  0.00  0.00     0.217 HD
ENDBRANCH   4  21
BRANCH   1  23
HETATM   23  C   UNL     1      -3.235  13.058  23.307  0.00  0.00     0.256 C 
HETATM   24  N   UNL     1      -2.841  11.722  23.212  0.00  0.00    -0.348 N 
HETATM   25  C   UNL     1      -2.214  11.140  22.036  0.00  0.00     0.153 C 
HETATM   26  O   UNL     1      -3.683  13.534  24.351  0.00  0.00    -0.267 OA
BRANCH  24  27
HETATM   27  C   UNL     1      -3.364  10.773  24.201  0.00  0.00     0.164 C 
BRANCH  27  28
HETATM   28  C   UNL     1      -2.616  10.528  25.509  0.00  0.00    -0.034 A 
HETATM   29  C   UNL     1      -3.088  10.744  26.820  0.00  0.00    -0.054 A 
HETATM   30  C   UNL     1      -4.409  11.387  27.134  0.00  0.00     0.049 C 
HETATM   31  C   UNL     1      -2.303  10.324  27.920  0.00  0.00     0.007 A 
HETATM   32  C   UNL     1      -1.064   9.712  27.748  0.00  0.00     0.001 A 
HETATM   33  C   UNL     1      -0.581   9.505  26.467  0.00  0.00     0.001 A 
HETATM   34  C   UNL     1      -1.350   9.900  25.367  0.00  0.00     0.009 A 
ENDBRANCH  27  28
ENDBRANCH  24  27
ENDBRANCH   1  23
BRANCH   6  35
HETATM   35  O   UNL     1      -5.441  13.617  21.389  0.00  0.00    -0.360 OA
HETATM   36  H   UNL     1      -5.729  13.497  22.316  0.00  0.00     0.217 HD
ENDBRANCH   6  35
TORSDOF 7
ENDMDL
MODEL 4
REMARK VINA RESULT:    -9.502      3.355      7.729
REMARK INTER + INTRA:         -13.726
REMARK INTER:                 -12.422
REMARK INTRA:                  -1.303
REMARK UNBOUND:                -0.891
REMARK  7 active torsions:
REMARK  status: ('A' for Active; 'I' for Inactive)
REMARK    1  A    between atoms: C_7  and  C_8 
REMARK    2  A    between atoms: C_8  and  N_9 
REMARK       I    between atoms: N_9  and  C_11 
REMARK    3  A    between atoms: C_11  and  C_13 
REMARK    4  A    between atoms: C_15  and  C_16 
REMARK    5  A    between atoms: N_22  and  C_23 
REMARK    6  A    between atoms: C_30  and  O_31 
REMARK    7  A    between atoms: C_33  and  O_34 
ROOT
HETATM    1  C   UNL     1      -2.480  12.131  24.453  0.00  0.00     0.066 C 
HETATM    2  C   UNL     1      -1.759  11.283  25.326  0.00  0.00     0.038 C 
HETATM    3  C   UNL     1      -2.369  10.748  26.474  0.00  0.00     0.046 C 
HETATM    4  C   UNL     1      -3.751  10.921  26.637  0.00  0.00     0.082 C 
HETATM    5  C   UNL     1      -4.447  11.807  25.831  0.00  0.00     0.075 C 
HETATM    6  C   UNL     1      -3.808  12.456  24.780  0.00  0.00     0.084 C 
ENDROOT
BRANCH   3   7
HETATM    7  C   UNL     1      -1.651  10.041  27.570  0.00  0.00     0.172 C 
HETATM    8  N   UNL     1      -1.937  10.303  28.824  0.00  0.00    -0.151 NA
HETATM    9  N   UNL     1      -1.025   9.587  29.537  0.00  0.00    -0.226 N 
HETATM   10  H   UNL     1      -0.868   9.732  30.526  0.00  0.00     0.194 HD
HETATM   11  C   UNL     1      -0.115   8.960  28.687  0.00  0.00     0.349 C 
HETATM   12  O   UNL     1       0.933   8.457  29.058  0.00  0.00    -0.245 OA
HETATM   13  N   UNL     1      -0.608   9.163  27.407  0.00  0.00    -0.244 N 
BRANCH  13  14
HETATM   14  C   UNL     1       0.089   8.772  26.246  0.00  0.00     0.051 A 
HETATM   15  C   UNL     1       0.845   9.724  25.539  0.00  0.00     0.031 A 
HETATM   16  C   UNL     1       1.436   9.413  24.311  0.00  0.00     0.002 A 
HETATM   17  C   UNL     1       1.278   8.148  23.767  0.00  0.00     0.001 A 
HETATM   18  C   UNL     1       0.593   7.171  24.491  0.00  0.00     0.009 A 
HETATM   19  C   UNL     1       0.025   7.451  25.750  0.00  0.00    -0.035 A 
HETATM   20  C   UNL     1      -0.682   6.302  26.419  0.00  0.00     0.050 C 
ENDBRANCH  13  14
ENDBRANCH   3   7
BRANCH   4  21
HETATM   21  O   UNL     1      -4.498  10.245  27.564  0.00  0.00    -0.360 OA
HETATM   22  H   UNL     1      -4.426  10.726  28.420  0.00  0.00     0.217 HD
ENDBRANCH   4  21
BRANCH   1  23
HETATM   23  C   UNL     1      -1.895  12.397  23.100  0.00  0.00     0.256 C 
HETATM   24  N   UNL     1      -1.084  13.498  22.824  0.00  0.00    -0.348 N 
HETATM   25  C   UNL     1      -0.614  14.437  23.829  0.00  0.00     0.153 C 
HETATM   26  O   UNL     1      -2.200  11.575  22.234  0.00  0.00    -0.267 OA
BRANCH  24  27
HETATM   27  C   UNL     1      -0.954  13.930  21.428  0.00  0.00     0.164 C 
BRANCH  27  28
HETATM   28  C   UNL     1      -1.872  15.013  20.864  0.00  0.00    -0.034 A 
HETATM   29  C   UNL     1      -1.550  16.361  20.605  0.00  0.00    -0.054 A 
HETATM   30  C   UNL     1      -0.236  16.989  20.973  0.00  0.00     0.049 C 
HETATM   31  C   UNL     1      -2.492  17.187  19.947  0.00  0.00     0.007 A 
HETATM   32  C   UNL     1      -3.740  16.710  19.555  0.00  0.00     0.001 A 
HETATM   33  C   UNL     1      -4.076  15.392  19.814  0.00  0.00     0.001 A 
HETATM   34  C   UNL     1      -3.152  14.557  20.450  0.00  0.00     0.009 A 
ENDBRANCH  27  28
ENDBRANCH  24  27
ENDBRANCH   1  23
BRANCH   6  35
HETATM   35  O   UNL     1      -4.530  13.377  24.077  0.00  0.00    -0.360 OA
HETATM   36  H   UNL     1      -4.207  14.262  24.339  0.00  0.00     0.217 HD
ENDBRANCH   6  35
TORSDOF 7
ENDMDL
MODEL 5
REMARK VINA RESULT:    -9.275      2.036      5.566
REMARK INTER + INTRA:         -13.419
REMARK INTER:                 -11.250
REMARK INTRA:                  -2.169
REMARK UNBOUND:                -0.891
REMARK  7 active torsions:
REMARK  status: ('A' for Active; 'I' for Inactive)
REMARK    1  A    between atoms: C_7  and  C_8 
REMARK    2  A    between atoms: C_8  and  N_9 
REMARK       I    between atoms: N_9  and  C_11 
REMARK    3  A    between atoms: C_11  and  C_13 
REMARK    4  A    between atoms: C_15  and  C_16 
REMARK    5  A    between atoms: N_22  and  C_23 
REMARK    6  A    between atoms: C_30  and  O_31 
REMARK    7  A    between atoms: C_33  and  O_34 
ROOT
HETATM    1  C   UNL     1      -2.268  16.074  21.231  0.00  0.00     0.066 C 
HETATM    2  C   UNL     1      -2.314  15.181  22.327  0.00  0.00     0.038 C 
HETATM    3  C   UNL     1      -3.445  14.375  22.550  0.00  0.00     0.046 C 
HETATM    4  C   UNL     1      -4.443  14.339  21.566  0.00  0.00     0.082 C 
HETATM    5  C   UNL     1      -4.441  15.260  20.531  0.00  0.00     0.075 C 
HETATM    6  C   UNL     1      -3.393  16.164  20.392  0.00  0.00     0.084 C 
ENDROOT
BRANCH   3   7
HETATM    7  C   UNL     1      -3.695  13.579  23.783  0.00  0.00     0.172 C 
HETATM    8  N   UNL     1      -4.778  13.787  24.495  0.00  0.00    -0.151 NA
HETATM    9  N   UNL     1      -4.621  12.994  25.591  0.00  0.00    -0.226 N 
HETATM   10  H   UNL     1      -5.202  13.079  26.415  0.00  0.00     0.194 HD
HETATM   11  C   UNL     1      -3.373  12.373  25.576  0.00  0.00     0.349 C 
HETATM   12  O   UNL     1      -2.881  11.804  26.537  0.00  0.00    -0.245 OA
HETATM   13  N   UNL     1      -2.831  12.666  24.334  0.00  0.00    -0.244 N 
BRANCH  13  14
HETATM   14  C   UNL     1      -1.518  12.307  23.967  0.00  0.00     0.051 A 
HETATM   15  C   UNL     1      -0.442  12.677  24.793  0.00  0.00     0.031 A 
HETATM   16  C   UNL     1       0.881  12.463  24.398  0.00  0.00     0.002 A 
HETATM   17  C   UNL     1       1.152  11.881  23.169  0.00  0.00     0.001 A 
HETATM   18  C   UNL     1       0.095  11.442  22.370  0.00  0.00     0.009 A 
HETATM   19  C   UNL     1      -1.247  11.610  22.768  0.00  0.00    -0.035 A 
HETATM   20  C   UNL     1      -2.284  11.086  21.810  0.00  0.00     0.050 C 
ENDBRANCH  13  14
ENDBRANCH   3   7
BRANCH   4  21
HETATM   21  O   UNL     1      -5.456  13.419  21.543  0.00  0.00    -0.360 OA
HETATM   22  H   UNL     1      -5.353  12.836  22.329  0.00  0.00     0.217 HD
ENDBRANCH   4  21
BRANCH   1  23
HETATM   23  C   UNL     1      -0.937  16.650  20.859  0.00  0.00     0.256 C 
HETATM   24  N   UNL     1       0.205  15.870  20.668  0.00  0.00    -0.348 N 
HETATM   25  C   UNL     1       0.211  14.417  20.686  0.00  0.00     0.153 C 
HETATM   26  O   UNL     1      -0.916  17.877  20.750  0.00  0.00    -0.267 OA
BRANCH  24  27
HETATM   27  C   UNL     1       1.515  16.522  20.777  0.00  0.00     0.164 C 
BRANCH  27  28
HETATM   28  C   UNL     1       2.636  15.877  21.590  0.00  0.00    -0.034 A 
HETATM   29  C   UNL     1       2.601  15.496  22.947  0.00  0.00    -0.054 A 
HETATM   30  C   UNL     1       1.449  15.788  23.865  0.00  0.00     0.049 C 
HETATM   31  C   UNL     1       3.691  14.780  23.496  0.00  0.00     0.007 A 
HETATM   32  C   UNL     1       4.811  14.449  22.737  0.00  0.00     0.001 A 
HETATM   33  C   UNL     1       4.865  14.828  21.406  0.00  0.00     0.001 A 
HETATM   34  C   UNL     1       3.791  15.523  20.842  0.00  0.00     0.009 A 
ENDBRANCH  27  28
ENDBRANCH  24  27
ENDBRANCH   1  23
BRANCH   6  35
HETATM   35  O   UNL     1      -3.493  17.097  19.401  0.00  0.00    -0.360 OA
HETATM   36  H   UNL     1      -4.374  17.514  19.481  0.00  0.00     0.217 HD
ENDBRANCH   6  35
TORSDOF 7
ENDMDL
MODEL 6
REMARK VINA RESULT:    -9.269      3.254      7.233
REMARK INTER + INTRA:         -13.411
REMARK INTER:                 -10.857
REMARK INTRA:                  -2.554
REMARK UNBOUND:                -0.891
REMARK  7 active torsions:
REMARK  status: ('A' for Active; 'I' for Inactive)
REMARK    1  A    between atoms: C_7  and  C_8 
REMARK    2  A    between atoms: C_8  and  N_9 
REMARK       I    between atoms: N_9  and  C_11 
REMARK    3  A    between atoms: C_11  and  C_13 
REMARK    4  A    between atoms: C_15  and  C_16 
REMARK    5  A    between atoms: N_22  and  C_23 
REMARK    6  A    between atoms: C_30  and  O_31 
REMARK    7  A    between atoms: C_33  and  O_34 
ROOT
HETATM    1  C   UNL     1      -1.218  13.993  26.355  0.00  0.00     0.066 C 
HETATM    2  C   UNL     1      -0.948  12.715  25.813  0.00  0.00     0.038 C 
HETATM    3  C   UNL     1      -1.597  11.571  26.311  0.00  0.00     0.046 C 
HETATM    4  C   UNL     1      -2.647  11.744  27.224  0.00  0.00     0.082 C 
HETATM    5  C   UNL     1      -2.867  12.979  27.813  0.00  0.00     0.075 C 
HETATM    6  C   UNL     1      -2.121  14.087  27.428  0.00  0.00     0.084 C 
ENDROOT
BRANCH   3   7
HETATM    7  C   UNL     1      -1.227  10.167  25.977  0.00  0.00     0.172 C 
HETATM    8  N   UNL     1      -0.979   9.305  26.935  0.00  0.00    -0.151 NA
HETATM    9  N   UNL     1      -0.561   8.185  26.283  0.00  0.00    -0.226 N 
HETATM   10  H   UNL     1      -0.116   7.410  26.758  0.00  0.00     0.194 HD
HETATM   11  C   UNL     1      -0.467   8.418  24.912  0.00  0.00     0.349 C 
HETATM   12  O   UNL     1       0.101   7.674  24.129  0.00  0.00    -0.245 OA
HETATM   13  N   UNL     1      -1.022   9.673  24.713  0.00  0.00    -0.244 N 
BRANCH  13  14
HETATM   14  C   UNL     1      -1.017  10.325  23.463  0.00  0.00     0.051 A 
HETATM   15  C   UNL     1       0.205  10.550  22.804  0.00  0.00     0.031 A 
HETATM   16  C   UNL     1       0.268  11.312  21.634  0.00  0.00     0.002 A 
HETATM   17  C   UNL     1      -0.888  11.866  21.106  0.00  0.00     0.001 A 
HETATM   18  C   UNL     1      -2.117  11.591  21.707  0.00  0.00     0.009 A 
HETATM   19  C   UNL     1      -2.208  10.790  22.864  0.00  0.00    -0.035 A 
HETATM   20  C   UNL     1      -3.598  10.575  23.402  0.00  0.00     0.050 C 
ENDBRANCH  13  14
ENDBRANCH   3   7
BRANCH   4  21
HETATM   21  O   UNL     1      -3.512  10.748  27.586  0.00  0.00    -0.360 OA
HETATM   22  H   UNL     1      -4.311  10.818  27.015  0.00  0.00     0.217 HD
ENDBRANCH   4  21
BRANCH   1  23
HETATM   23  C   UNL     1      -0.759  15.189  25.580  0.00  0.00     0.256 C 
HETATM   24  N   UNL     1      -1.235  15.500  24.306  0.00  0.00    -0.348 N 
HETATM   25  C   UNL     1      -2.309  14.782  23.640  0.00  0.00     0.153 C 
HETATM   26  O   UNL     1       0.094  15.875  26.146  0.00  0.00    -0.267 OA
BRANCH  24  27
HETATM   27  C   UNL     1      -0.419  16.374  23.455  0.00  0.00     0.164 C 
BRANCH  27  28
HETATM   28  C   UNL     1       0.562  15.777  22.448  0.00  0.00    -0.034 A 
HETATM   29  C   UNL     1       0.776  16.185  21.115  0.00  0.00    -0.054 A 
HETATM   30  C   UNL     1      -0.048  17.231  20.422  0.00  0.00     0.049 C 
HETATM   31  C   UNL     1       1.831  15.604  20.372  0.00  0.00     0.007 A 
HETATM   32  C   UNL     1       2.662  14.627  20.914  0.00  0.00     0.001 A 
HETATM   33  C   UNL     1       2.456  14.208  22.218  0.00  0.00     0.001 A 
HETATM   34  C   UNL     1       1.428  14.781  22.973  0.00  0.00     0.009 A 
ENDBRANCH  27  28
ENDBRANCH  24  27
ENDBRANCH   1  23
BRANCH   6  35
HETATM   35  O   UNL     1      -2.332  15.253  28.106  0.00  0.00    -0.360 OA
HETATM   36  H   UNL     1      -2.835  15.848  27.515  0.00  0.00     0.217 HD
ENDBRANCH   6  35
TORSDOF 7
ENDMDL
MODEL 7
REMARK VINA RESULT:    -9.234      2.929      7.286
REMARK INTER + INTRA:         -13.364
REMARK INTER:                 -12.473
REMARK INTRA:                  -0.891
REMARK UNBOUND:                -0.891
REMARK  7 active torsions:
REMARK  status: ('A' for Active; 'I' for Inactive)
REMARK    1  A    between atoms: C_7  and  C_8 
REMARK    2  A    between atoms: C_8  and  N_9 
REMARK       I    between atoms: N_9  and  C_11 
REMARK    3  A    between atoms: C_11  and  C_13 
REMARK    4  A    between atoms: C_15  and  C_16 
REMARK    5  A    between atoms: N_22  and  C_23 
REMARK    6  A    between atoms: C_30  and  O_31 
REMARK    7  A    between atoms: C_33  and  O_34 
ROOT
HETATM    1  C   UNL     1      -0.476  14.956  24.835  0.00  0.00     0.066 C 
HETATM    2  C   UNL     1      -1.655  14.208  24.610  0.00  0.00     0.038 C 
HETATM    3  C   UNL     1      -2.448  13.775  25.687  0.00  0.00     0.046 C 
HETATM    4  C   UNL     1      -2.149  14.253  26.970  0.00  0.00     0.082 C 
HETATM    5  C   UNL     1      -0.959  14.922  27.210  0.00  0.00     0.075 C 
HETATM    6  C   UNL     1      -0.096  15.223  26.162  0.00  0.00     0.084 C 
ENDROOT
BRANCH   3   7
HETATM    7  C   UNL     1      -3.569  12.799  25.583  0.00  0.00     0.172 C 
HETATM    8  N   UNL     1      -4.181  12.380  26.665  0.00  0.00    -0.151 NA
HETATM    9  N   UNL     1      -5.044  11.426  26.218  0.00  0.00    -0.226 N 
HETATM   10  H   UNL     1      -5.521  10.785  26.840  0.00  0.00     0.194 HD
HETATM   11  C   UNL     1      -4.873  11.206  24.852  0.00  0.00     0.349 C 
HETATM   12  O   UNL     1      -5.341  10.254  24.249  0.00  0.00    -0.245 OA
HETATM   13  N   UNL     1      -3.997  12.193  24.428  0.00  0.00    -0.244 N 
BRANCH  13  14
HETATM   14  C   UNL     1      -3.481  12.249  23.117  0.00  0.00     0.051 A 
HETATM   15  C   UNL     1      -2.603  11.244  22.675  0.00  0.00     0.031 A 
HETATM   16  C   UNL     1      -1.963  11.335  21.436  0.00  0.00     0.002 A 
HETATM   17  C   UNL     1      -2.185  12.434  20.621  0.00  0.00     0.001 A 
HETATM   18  C   UNL     1      -3.109  13.404  21.013  0.00  0.00     0.009 A 
HETATM   19  C   UNL     1      -3.797  13.310  22.240  0.00  0.00    -0.035 A 
HETATM   20  C   UNL     1      -4.766  14.426  22.532  0.00  0.00     0.050 C 
ENDBRANCH  13  14
ENDBRANCH   3   7
BRANCH   4  21
HETATM   21  O   UNL     1      -2.981  14.113  28.048  0.00  0.00    -0.360 OA
HETATM   22  H   UNL     1      -3.827  14.570  27.839  0.00  0.00     0.217 HD
ENDBRANCH   4  21
BRANCH   1  23
HETATM   23  C   UNL     1       0.135  15.661  23.664  0.00  0.00     0.256 C 
HETATM   24  N   UNL     1       0.774  14.990  22.619  0.00  0.00    -0.348 N 
HETATM   25  C   UNL     1       0.811  13.544  22.483  0.00  0.00     0.153 C 
HETATM   26  O   UNL     1       0.052  16.889  23.698  0.00  0.00    -0.267 OA
BRANCH  24  27
HETATM   27  C   UNL     1       1.726  15.741  21.793  0.00  0.00     0.164 C 
BRANCH  27  28
HETATM   28  C   UNL     1       3.203  15.352  21.767  0.00  0.00    -0.034 A 
HETATM   29  C   UNL     1       4.114  15.517  20.703  0.00  0.00    -0.054 A 
HETATM   30  C   UNL     1       3.722  16.011  19.340  0.00  0.00     0.049 C 
HETATM   31  C   UNL     1       5.483  15.227  20.910  0.00  0.00     0.007 A 
HETATM   32  C   UNL     1       5.961  14.768  22.135  0.00  0.00     0.001 A 
HETATM   33  C   UNL     1       5.076  14.588  23.185  0.00  0.00     0.001 A 
HETATM   34  C   UNL     1       3.721  14.884  23.004  0.00  0.00     0.009 A 
ENDBRANCH  27  28
ENDBRANCH  24  27
ENDBRANCH   1  23
BRANCH   6  35
HETATM   35  O   UNL     1       1.095  15.810  26.477  0.00  0.00    -0.360 OA
HETATM   36  H   UNL     1       0.918  16.482  27.165  0.00  0.00     0.217 HD
ENDBRANCH   6  35
TORSDOF 7
ENDMDL
MODEL 8
REMARK VINA RESULT:    -9.208      2.061      6.131
REMARK INTER + INTRA:         -13.328
REMARK INTER:                 -11.672
REMARK INTRA:                  -1.657
REMARK UNBOUND:                -0.891
REMARK  7 active torsions:
REMARK  status: ('A' for Active; 'I' for Inactive)
REMARK    1  A    between atoms: C_7  and  C_8 
REMARK    2  A    between atoms: C_8  and  N_9 
REMARK       I    between atoms: N_9  and  C_11 
REMARK    3  A    between atoms: C_11  and  C_13 
REMARK    4  A    between atoms: C_15  and  C_16 
REMARK    5  A    between atoms: N_22  and  C_23 
REMARK    6  A    between atoms: C_30  and  O_31 
REMARK    7  A    between atoms: C_33  and  O_34 
ROOT
HETATM    1  C   UNL     1      -1.652  15.613  21.472  0.00  0.00     0.066 C 
HETATM    2  C   UNL     1      -2.022  14.479  22.231  0.00  0.00     0.038 C 
HETATM    3  C   UNL     1      -3.147  13.713  21.878  0.00  0.00     0.046 C 
HETATM    4  C   UNL     1      -3.783  13.986  20.658  0.00  0.00     0.082 C 
HETATM    5  C   UNL     1      -3.475  15.135  19.948  0.00  0.00     0.075 C 
HETATM    6  C   UNL     1      -2.457  15.979  20.378  0.00  0.00     0.084 C 
ENDROOT
BRANCH   3   7
HETATM    7  C   UNL     1      -3.756  12.650  22.725  0.00  0.00     0.172 C 
HETATM    8  N   UNL     1      -5.058  12.599  22.885  0.00  0.00    -0.151 NA
HETATM    9  N   UNL     1      -5.248  11.606  23.797  0.00  0.00    -0.226 N 
HETATM   10  H   UNL     1      -6.132  11.457  24.267  0.00  0.00     0.194 HD
HETATM   11  C   UNL     1      -4.026  11.122  24.262  0.00  0.00     0.349 C 
HETATM   12  O   UNL     1      -3.902  10.407  25.243  0.00  0.00    -0.245 OA
HETATM   13  N   UNL     1      -3.065  11.724  23.464  0.00  0.00    -0.244 N 
BRANCH  13  14
HETATM   14  C   UNL     1      -1.681  11.576  23.688  0.00  0.00     0.051 A 
HETATM   15  C   UNL     1      -0.932  10.724  22.857  0.00  0.00     0.031 A 
HETATM   16  C   UNL     1       0.410  10.441  23.129  0.00  0.00     0.002 A 
HETATM   17  C   UNL     1       1.024  11.002  24.238  0.00  0.00     0.001 A 
HETATM   18  C   UNL     1       0.316  11.907  25.030  0.00  0.00     0.009 A 
HETATM   19  C   UNL     1      -1.025  12.238  24.750  0.00  0.00    -0.035 A 
HETATM   20  C   UNL     1      -1.663  13.230  25.686  0.00  0.00     0.050 C 
ENDBRANCH  13  14
ENDBRANCH   3   7
BRANCH   4  21
HETATM   21  O   UNL     1      -4.717  13.165  20.087  0.00  0.00    -0.360 OA
HETATM   22  H   UNL     1      -5.043  12.547  20.781  0.00  0.00     0.217 HD
ENDBRANCH   4  21
BRANCH   1  23
HETATM   23  C   UNL     1      -0.284  16.182  21.691  0.00  0.00     0.256 C 
HETATM   24  N   UNL     1       0.860  15.392  21.808  0.00  0.00    -0.348 N 
HETATM   25  C   UNL     1       0.879  13.952  21.609  0.00  0.00     0.153 C 
HETATM   26  O   UNL     1      -0.243  17.410  21.783  0.00  0.00    -0.267 OA
BRANCH  24  27
HETATM   27  C   UNL     1       2.034  15.966  22.475  0.00  0.00     0.164 C 
BRANCH  27  28
HETATM   28  C   UNL     1       3.441  15.507  22.099  0.00  0.00    -0.034 A 
HETATM   29  C   UNL     1       4.089  15.662  20.856  0.00  0.00    -0.054 A 
HETATM   30  C   UNL     1       3.422  16.219  19.632  0.00  0.00     0.049 C 
HETATM   31  C   UNL     1       5.451  15.298  20.733  0.00  0.00     0.007 A 
HETATM   32  C   UNL     1       6.173  14.775  21.804  0.00  0.00     0.001 A 
HETATM   33  C   UNL     1       5.545  14.605  23.027  0.00  0.00     0.001 A 
HETATM   34  C   UNL     1       4.204  14.973  23.171  0.00  0.00     0.009 A 
ENDBRANCH  27  28
ENDBRANCH  24  27
ENDBRANCH   1  23
BRANCH   6  35
HETATM   35  O   UNL     1      -2.260  17.135  19.680  0.00  0.00    -0.360 OA
HETATM   36  H   UNL     1      -1.392  17.064  19.235  0.00  0.00     0.217 HD
ENDBRANCH   6  35
TORSDOF 7
ENDMDL
MODEL 9
REMARK VINA RESULT:    -8.979      1.562      2.581
REMARK INTER + INTRA:         -13.019
REMARK INTER:                 -11.582
REMARK INTRA:                  -1.437
REMARK UNBOUND:                -0.891
REMARK  7 active torsions:
REMARK  status: ('A' for Active; 'I' for Inactive)
REMARK    1  A    between atoms: C_7  and  C_8 
REMARK    2  A    between atoms: C_8  and  N_9 
REMARK       I    between atoms: N_9  and  C_11 
REMARK    3  A    between atoms: C_11  and  C_13 
REMARK    4  A    between atoms: C_15  and  C_16 
REMARK    5  A    between atoms: N_22  and  C_23 
REMARK    6  A    between atoms: C_30  and  O_31 
REMARK    7  A    between atoms: C_33  and  O_34 
ROOT
HETATM    1  C   UNL     1      -3.134  14.777  21.726  0.00  0.00     0.066 C 
HETATM    2  C   UNL     1      -1.815  15.144  22.083  0.00  0.00     0.038 C 
HETATM    3  C   UNL     1      -1.101  16.087  21.322  0.00  0.00     0.046 C 
HETATM    4  C   UNL     1      -1.783  16.787  20.317  0.00  0.00     0.082 C 
HETATM    5  C   UNL     1      -3.045  16.383  19.913  0.00  0.00     0.075 C 
HETATM    6  C   UNL     1      -3.698  15.346  20.571  0.00  0.00     0.084 C 
ENDROOT
BRANCH   3   7
HETATM    7  C   UNL     1       0.353  16.375  21.467  0.00  0.00     0.172 C 
HETATM    8  N   UNL     1       0.838  17.532  21.083  0.00  0.00    -0.151 NA
HETATM    9  N   UNL     1       2.184  17.405  21.241  0.00  0.00    -0.226 N 
HETATM   10  H   UNL     1       2.845  18.064  20.850  0.00  0.00     0.194 HD
HETATM   11  C   UNL     1       2.515  16.110  21.636  0.00  0.00     0.349 C 
HETATM   12  O   UNL     1       3.648  15.658  21.620  0.00  0.00    -0.245 OA
HETATM   13  N   UNL     1       1.305  15.485  21.899  0.00  0.00    -0.244 N 
BRANCH  13  14
HETATM   14  C   UNL     1       1.202  14.118  22.224  0.00  0.00     0.051 A 
HETATM   15  C   UNL     1       0.942  13.182  21.207  0.00  0.00     0.031 A 
HETATM   16  C   UNL     1       0.695  11.838  21.504  0.00  0.00     0.002 A 
HETATM   17  C   UNL     1       0.701  11.409  22.822  0.00  0.00     0.001 A 
HETATM   18  C   UNL     1       1.030  12.310  23.836  0.00  0.00     0.009 A 
HETATM   19  C   UNL     1       1.322  13.659  23.555  0.00  0.00    -0.035 A 
HETATM   20  C   UNL     1       1.663  14.516  24.745  0.00  0.00     0.050 C 
ENDBRANCH  13  14
ENDBRANCH   3   7
BRANCH   4  21
HETATM   21  O   UNL     1      -1.280  17.891  19.683  0.00  0.00    -0.360 OA
HETATM   22  H   UNL     1      -1.067  17.638  18.756  0.00  0.00     0.217 HD
ENDBRANCH   4  21
BRANCH   1  23
HETATM   23  C   UNL     1      -3.949  14.036  22.741  0.00  0.00     0.256 C 
HETATM   24  N   UNL     1      -3.632  14.010  24.100  0.00  0.00    -0.348 N 
HETATM   25  C   UNL     1      -2.562  14.787  24.702  0.00  0.00     0.153 C 
HETATM   26  O   UNL     1      -4.918  13.429  22.283  0.00  0.00    -0.267 OA
BRANCH  24  27
HETATM   27  C   UNL     1      -4.174  12.918  24.916  0.00  0.00     0.164 C 
BRANCH  27  28
HETATM   28  C   UNL     1      -3.262  11.803  25.423  0.00  0.00    -0.034 A 
HETATM   29  C   UNL     1      -2.533  10.875  24.651  0.00  0.00    -0.054 A 
HETATM   30  C   UNL     1      -2.642  10.766  23.157  0.00  0.00     0.049 C 
HETATM   31  C   UNL     1      -1.625   9.999  25.292  0.00  0.00     0.007 A 
HETATM   32  C   UNL     1      -1.438  10.015  26.672  0.00  0.00     0.001 A 
HETATM   33  C   UNL     1      -2.158  10.911  27.445  0.00  0.00     0.001 A 
HETATM   34  C   UNL     1      -3.049  11.795  26.827  0.00  0.00     0.009 A 
ENDBRANCH  27  28
ENDBRANCH  24  27
ENDBRANCH   1  23
BRANCH   6  35
HETATM   35  O   UNL     1      -4.903  14.944  20.072  0.00  0.00    -0.360 OA
HETATM   36  H   UNL     1      -4.952  15.249  19.144  0.00  0.00     0.217 HD
ENDBRANCH   6  35
TORSDOF 7
ENDMDL
