MODEL 1
REMARK VINA RESULT:    -8.729      0.000      0.000
REMARK INTER + INTRA:         -12.420
REMARK INTER:                 -11.768
REMARK INTRA:                  -0.652
REMARK UNBOUND:                -0.884
REMARK  6 active torsions:
REMARK  status: ('A' for Active; 'I' for Inactive)
REMARK    1  A    between atoms: N_6  and  C_7 
REMARK    2  A    between atoms: C_12  and  N_13 
REMARK       I    between atoms: N_13  and  C_15 
REMARK    3  A    between atoms: C_15  and  C_17 
REMARK    4  A    between atoms: C_19  and  O_20 
REMARK    5  A    between atoms: C_27  and  C_28 
REMARK    6  A    between atoms: C_28  and  C_29 
ROOT
HETATM    1  C   UNL     1       5.947  11.968  23.599  0.00  0.00     0.066 C 
HETATM    2  C   UNL     1       4.806  12.653  24.068  0.00  0.00     0.035 C 
HETATM    3  C   UNL     1       7.209  12.424  24.028  0.00  0.00     0.083 C 
HETATM    4  C   UNL     1       7.362  13.571  24.819  0.00  0.00     0.069 C 
HETATM    5  C   UNL     1       6.206  14.307  25.095  0.00  0.00     0.065 A 
HETATM    6  C   UNL     1       4.932  13.904  24.704  0.00  0.00     0.020 A 
HETATM    7  N   UNL     1       6.016  15.483  25.764  0.00  0.00    -0.277 N 
HETATM    8  H   UNL     1       6.714  16.038  26.245  0.00  0.00     0.189 HD
HETATM    9  N   UNL     1       4.754  15.940  25.726  0.00  0.00    -0.178 NA
HETATM   10  C   UNL     1       4.071  14.994  25.054  0.00  0.00     0.071 A 
ENDROOT
BRANCH   1  11
HETATM   11  C   UNL     1       5.878  10.792  22.631  0.00  0.00     0.260 C 
HETATM   12  N   UNL     1       4.896   9.767  22.776  0.00  0.00    -0.318 N 
HETATM   13  C   UNL     1       3.868   9.839  23.829  0.00  0.00     0.159 C 
HETATM   14  O   UNL     1       6.693  10.860  21.719  0.00  0.00    -0.267 OA
BRANCH  12  15
HETATM   15  C   UNL     1       4.741   8.662  21.833  0.00  0.00     0.037 C 
HETATM   16  C   UNL     1       4.498   7.352  22.296  0.00  0.00     0.032 C 
HETATM   17  C   UNL     1       4.130   6.297  21.441  0.00  0.00     0.031 C 
HETATM   18  C   UNL     1       4.031   6.468  20.065  0.00  0.00     0.030 C 
HETATM   19  C   UNL     1       4.423   7.729  19.593  0.00  0.00     0.031 C 
HETATM   20  C   UNL     1       4.767   8.799  20.450  0.00  0.00     0.032 C 
BRANCH  18  21
HETATM   21  N   UNL     1       3.613   5.464  19.222  0.00  0.00    -0.377 N 
HETATM   22  C   UNL     1       3.079   5.678  17.866  0.00  0.00     0.149 C 
HETATM   23  C   UNL     1       1.813   4.815  17.697  0.00  0.00     0.187 C 
HETATM   24  O   UNL     1       2.059   3.424  17.980  0.00  0.00    -0.388 OA
HETATM   25  C   UNL     1       2.574   3.264  19.316  0.00  0.00     0.187 C 
HETATM   26  C   UNL     1       3.882   4.043  19.497  0.00  0.00     0.149 C 
ENDBRANCH  18  21
ENDBRANCH  12  15
ENDBRANCH   1  11
BRANCH   3  27
HETATM   27  O   UNL     1       8.387  11.788  23.716  0.00  0.00    -0.360 OA
HETATM   28  H   UNL     1       8.180  10.844  23.533  0.00  0.00     0.217 HD
ENDBRANCH   3  27
BRANCH  10  29
HETATM   29  C   UNL     1       2.602  15.213  24.778  0.00  0.00     0.100 C 
BRANCH  29  30
HETATM   30  C   UNL     1       1.914  13.945  24.275  0.00  0.00    -0.052 A 
HETATM   31  C   UNL     1       1.457  13.793  22.958  0.00  0.00     0.007 A 
HETATM   32  C   UNL     1       0.827  12.617  22.539  0.00  0.00     0.001 A 
HETATM   33  C   UNL     1       0.558  11.599  23.449  0.00  0.00     0.007 A 
HETATM   34  C   UNL     1       0.881  11.761  24.798  0.00  0.00    -0.061 A 
HETATM   35  C   UNL     1       1.591  12.914  25.193  0.00  0.00     0.014 A 
HETATM   36  C   UNL     1       0.455  10.702  25.776  0.00  0.00     0.048 C 
ENDBRANCH  29  30
ENDBRANCH  10  29
TORSDOF 6
ENDMDL
MODEL 2
REMARK VINA RESULT:    -8.514      5.588      8.019
REMARK INTER + INTRA:         -12.136
REMARK INTER:                 -10.899
REMARK INTRA:                  -1.237
REMARK UNBOUND:                -0.884
REMARK  6 active torsions:
REMARK  status: ('A' for Active; 'I' for Inactive)
REMARK    1  A    between atoms: N_6  and  C_7 
REMARK    2  A    between atoms: C_12  and  N_13 
REMARK       I    between atoms: N_13  and  C_15 
REMARK    3  A    between atoms: C_15  and  C_17 
REMARK    4  A    between atoms: C_19  and  O_20 
REMARK    5  A    between atoms: C_27  and  C_28 
REMARK    6  A    between atoms: C_28  and  C_29 
ROOT
HETATM    1  C   UNL     1       0.032   9.521  26.071  0.00  0.00     0.066 C 
HETATM    2  C   UNL     1       0.360  10.171  24.861  0.00  0.00     0.035 C 
HETATM    3  C   UNL     1      -1.255   9.735  26.603  0.00  0.00     0.083 C 
HETATM    4  C   UNL     1      -2.166  10.629  26.024  0.00  0.00     0.069 C 
HETATM    5  C   UNL     1      -1.712  11.377  24.933  0.00  0.00     0.065 A 
HETATM    6  C   UNL     1      -0.455  11.205  24.359  0.00  0.00     0.020 A 
HETATM    7  N   UNL     1      -2.306  12.361  24.195  0.00  0.00    -0.277 N 
HETATM    8  H   UNL     1      -3.253  12.710  24.284  0.00  0.00     0.189 HD
HETATM    9  N   UNL     1      -1.500  12.928  23.284  0.00  0.00    -0.178 NA
HETATM   10  C   UNL     1      -0.342  12.248  23.384  0.00  0.00     0.071 A 
ENDROOT
BRANCH   1  11
HETATM   11  C   UNL     1       1.009   8.637  26.836  0.00  0.00     0.260 C 
HETATM   12  N   UNL     1       0.904   7.214  26.807  0.00  0.00    -0.318 N 
HETATM   13  C   UNL     1      -0.113   6.541  25.981  0.00  0.00     0.159 C 
HETATM   14  O   UNL     1       1.893   9.264  27.409  0.00  0.00    -0.267 OA
BRANCH  12  15
HETATM   15  C   UNL     1       1.859   6.323  27.461  0.00  0.00     0.037 C 
HETATM   16  C   UNL     1       2.704   5.491  26.697  0.00  0.00     0.032 C 
HETATM   17  C   UNL     1       3.780   4.778  27.257  0.00  0.00     0.031 C 
HETATM   18  C   UNL     1       4.052   4.808  28.620  0.00  0.00     0.030 C 
HETATM   19  C   UNL     1       3.120   5.511  29.395  0.00  0.00     0.031 C 
HETATM   20  C   UNL     1       2.053   6.251  28.836  0.00  0.00     0.032 C 
BRANCH  18  21
HETATM   21  N   UNL     1       5.136   4.167  29.173  0.00  0.00    -0.377 N 
HETATM   22  C   UNL     1       5.123   3.471  30.471  0.00  0.00     0.149 C 
HETATM   23  C   UNL     1       6.383   3.882  31.259  0.00  0.00     0.187 C 
HETATM   24  O   UNL     1       7.593   3.642  30.516  0.00  0.00    -0.388 OA
HETATM   25  C   UNL     1       7.563   4.345  29.260  0.00  0.00     0.187 C 
HETATM   26  C   UNL     1       6.367   3.899  28.410  0.00  0.00     0.149 C 
ENDBRANCH  18  21
ENDBRANCH  12  15
ENDBRANCH   1  11
BRANCH   3  27
HETATM   27  O   UNL     1      -1.725   9.091  27.723  0.00  0.00    -0.360 OA
HETATM   28  H   UNL     1      -1.567   9.678  28.496  0.00  0.00     0.217 HD
ENDBRANCH   3  27
BRANCH  10  29
HETATM   29  C   UNL     1       0.825  12.666  22.522  0.00  0.00     0.100 C 
BRANCH  29  30
HETATM   30  C   UNL     1       2.028  13.107  23.354  0.00  0.00    -0.052 A 
HETATM   31  C   UNL     1       2.066  14.316  24.064  0.00  0.00     0.007 A 
HETATM   32  C   UNL     1       3.189  14.685  24.810  0.00  0.00     0.001 A 
HETATM   33  C   UNL     1       4.337  13.898  24.792  0.00  0.00     0.007 A 
HETATM   34  C   UNL     1       4.388  12.751  23.997  0.00  0.00    -0.061 A 
HETATM   35  C   UNL     1       3.222  12.344  23.316  0.00  0.00     0.014 A 
HETATM   36  C   UNL     1       5.687  11.999  23.893  0.00  0.00     0.048 C 
ENDBRANCH  29  30
ENDBRANCH  10  29
TORSDOF 6
ENDMDL
MODEL 3
REMARK VINA RESULT:    -8.159      5.923      8.505
REMARK INTER + INTRA:         -11.666
REMARK INTER:                 -11.373
REMARK INTRA:                  -0.294
REMARK UNBOUND:                -0.884
REMARK  6 active torsions:
REMARK  status: ('A' for Active; 'I' for Inactive)
REMARK    1  A    between atoms: N_6  and  C_7 
REMARK    2  A    between atoms: C_12  and  N_13 
REMARK       I    between atoms: N_13  and  C_15 
REMARK    3  A    between atoms: C_15  and  C_17 
REMARK    4  A    between atoms: C_19  and  O_20 
REMARK    5  A    between atoms: C_27  and  C_28 
REMARK    6  A    between atoms: C_28  and  C_29 
ROOT
HETATM    1  C   UNL     1      -0.079   9.965  26.078  0.00  0.00     0.066 C 
HETATM    2  C   UNL     1       0.788  10.382  25.045  0.00  0.00     0.035 C 
HETATM    3  C   UNL     1      -1.390  10.480  26.082  0.00  0.00     0.083 C 
HETATM    4  C   UNL     1      -1.819  11.445  25.161  0.00  0.00     0.069 C 
HETATM    5  C   UNL     1      -0.858  11.950  24.280  0.00  0.00     0.065 A 
HETATM    6  C   UNL     1       0.450  11.477  24.224  0.00  0.00     0.020 A 
HETATM    7  N   UNL     1      -0.923  12.924  23.325  0.00  0.00    -0.277 N 
HETATM    8  H   UNL     1      -1.740  13.450  23.037  0.00  0.00     0.189 HD
HETATM    9  N   UNL     1       0.255  13.211  22.750  0.00  0.00    -0.178 NA
HETATM   10  C   UNL     1       1.125  12.347  23.308  0.00  0.00     0.071 A 
ENDROOT
BRANCH   1  11
HETATM   11  C   UNL     1       0.347   9.021  27.196  0.00  0.00     0.260 C 
HETATM   12  N   UNL     1       1.360   8.037  26.993  0.00  0.00    -0.318 N 
HETATM   13  C   UNL     1       2.083   7.939  25.713  0.00  0.00     0.159 C 
HETATM   14  O   UNL     1      -0.220   9.236  28.261  0.00  0.00    -0.267 OA
BRANCH  12  15
HETATM   15  C   UNL     1       1.855   7.161  28.053  0.00  0.00     0.037 C 
HETATM   16  C   UNL     1       2.416   5.905  27.742  0.00  0.00     0.032 C 
HETATM   17  C   UNL     1       3.096   5.119  28.689  0.00  0.00     0.031 C 
HETATM   18  C   UNL     1       3.218   5.510  30.017  0.00  0.00     0.030 C 
HETATM   19  C   UNL     1       2.528   6.682  30.356  0.00  0.00     0.031 C 
HETATM   20  C   UNL     1       1.865   7.489  29.404  0.00  0.00     0.032 C 
BRANCH  18  21
HETATM   21  N   UNL     1       3.933   4.783  30.941  0.00  0.00    -0.377 N 
HETATM   22  C   UNL     1       4.161   5.196  32.336  0.00  0.00     0.149 C 
HETATM   23  C   UNL     1       5.648   4.975  32.676  0.00  0.00     0.187 C 
HETATM   24  O   UNL     1       6.069   3.620  32.426  0.00  0.00    -0.388 OA
HETATM   25  C   UNL     1       5.833   3.263  31.051  0.00  0.00     0.187 C 
HETATM   26  C   UNL     1       4.346   3.390  30.699  0.00  0.00     0.149 C 
ENDBRANCH  18  21
ENDBRANCH  12  15
ENDBRANCH   1  11
BRANCH   3  27
HETATM   27  O   UNL     1      -2.354  10.082  26.978  0.00  0.00    -0.360 OA
HETATM   28  H   UNL     1      -1.963  10.129  27.880  0.00  0.00     0.217 HD
ENDBRANCH   3  27
BRANCH  10  29
HETATM   29  C   UNL     1       2.582  12.428  22.921  0.00  0.00     0.100 C 
BRANCH  29  30
HETATM   30  C   UNL     1       3.473  12.810  24.102  0.00  0.00    -0.052 A 
HETATM   31  C   UNL     1       4.031  11.868  24.978  0.00  0.00     0.007 A 
HETATM   32  C   UNL     1       4.836  12.260  26.050  0.00  0.00     0.001 A 
HETATM   33  C   UNL     1       5.031  13.610  26.329  0.00  0.00     0.007 A 
HETATM   34  C   UNL     1       4.391  14.584  25.559  0.00  0.00    -0.061 A 
HETATM   35  C   UNL     1       3.650  14.178  24.429  0.00  0.00     0.014 A 
HETATM   36  C   UNL     1       4.513  16.026  25.968  0.00  0.00     0.048 C 
ENDBRANCH  29  30
ENDBRANCH  10  29
TORSDOF 6
ENDMDL
MODEL 4
REMARK VINA RESULT:    -7.636      4.127      9.367
REMARK INTER + INTRA:         -10.976
REMARK INTER:                  -9.889
REMARK INTRA:                  -1.087
REMARK UNBOUND:                -0.884
REMARK  6 active torsions:
REMARK  status: ('A' for Active; 'I' for Inactive)
REMARK    1  A    between atoms: N_6  and  C_7 
REMARK    2  A    between atoms: C_12  and  N_13 
REMARK       I    between atoms: N_13  and  C_15 
REMARK    3  A    between atoms: C_15  and  C_17 
REMARK    4  A    between atoms: C_19  and  O_20 
REMARK    5  A    between atoms: C_27  and  C_28 
REMARK    6  A    between atoms: C_28  and  C_29 
ROOT
HETATM    1  C   UNL     1       3.023   6.999  24.188  0.00  0.00     0.066 C 
HETATM    2  C   UNL     1       1.863   6.698  24.935  0.00  0.00     0.035 C 
HETATM    3  C   UNL     1       3.494   6.024  23.287  0.00  0.00     0.083 C 
HETATM    4  C   UNL     1       2.909   4.755  23.181  0.00  0.00     0.069 C 
HETATM    5  C   UNL     1       1.879   4.457  24.079  0.00  0.00     0.065 A 
HETATM    6  C   UNL     1       1.366   5.380  24.987  0.00  0.00     0.020 A 
HETATM    7  N   UNL     1       1.156   3.317  24.286  0.00  0.00    -0.277 N 
HETATM    8  H   UNL     1       1.209   2.450  23.765  0.00  0.00     0.189 HD
HETATM    9  N   UNL     1       0.315   3.381  25.331  0.00  0.00    -0.178 NA
HETATM   10  C   UNL     1       0.446   4.638  25.796  0.00  0.00     0.071 A 
ENDROOT
BRANCH   1  11
HETATM   11  C   UNL     1       3.799   8.302  24.337  0.00  0.00     0.260 C 
HETATM   12  N   UNL     1       3.130   9.559  24.428  0.00  0.00    -0.318 N 
HETATM   13  C   UNL     1       1.659   9.641  24.448  0.00  0.00     0.159 C 
HETATM   14  O   UNL     1       5.010   8.143  24.425  0.00  0.00    -0.267 OA
BRANCH  12  15
HETATM   15  C   UNL     1       3.824  10.825  24.647  0.00  0.00     0.037 C 
HETATM   16  C   UNL     1       3.853  11.416  25.928  0.00  0.00     0.032 C 
HETATM   17  C   UNL     1       4.677  12.512  26.244  0.00  0.00     0.031 C 
HETATM   18  C   UNL     1       5.486  13.121  25.292  0.00  0.00     0.030 C 
HETATM   19  C   UNL     1       5.339  12.630  23.987  0.00  0.00     0.031 C 
HETATM   20  C   UNL     1       4.534  11.513  23.669  0.00  0.00     0.032 C 
BRANCH  18  21
HETATM   21  N   UNL     1       6.343  14.153  25.599  0.00  0.00    -0.377 N 
HETATM   22  C   UNL     1       7.151  14.891  24.613  0.00  0.00     0.149 C 
HETATM   23  C   UNL     1       8.585  15.027  25.160  0.00  0.00     0.187 C 
HETATM   24  O   UNL     1       8.616  15.636  26.464  0.00  0.00    -0.388 OA
HETATM   25  C   UNL     1       7.819  14.879  27.394  0.00  0.00     0.187 C 
HETATM   26  C   UNL     1       6.362  14.793  26.925  0.00  0.00     0.149 C 
ENDBRANCH  18  21
ENDBRANCH  12  15
ENDBRANCH   1  11
BRANCH   3  27
HETATM   27  O   UNL     1       4.557   6.231  22.439  0.00  0.00    -0.360 OA
HETATM   28  H   UNL     1       5.333   5.751  22.807  0.00  0.00     0.217 HD
ENDBRANCH   3  27
BRANCH  10  29
HETATM   29  C   UNL     1      -0.333   5.046  27.023  0.00  0.00     0.100 C 
BRANCH  29  30
HETATM   30  C   UNL     1       0.540   5.775  28.045  0.00  0.00    -0.052 A 
HETATM   31  C   UNL     1       0.243   7.056  28.531  0.00  0.00     0.007 A 
HETATM   32  C   UNL     1       1.072   7.690  29.462  0.00  0.00     0.001 A 
HETATM   33  C   UNL     1       2.265   7.097  29.863  0.00  0.00     0.007 A 
HETATM   34  C   UNL     1       2.663   5.878  29.308  0.00  0.00    -0.061 A 
HETATM   35  C   UNL     1       1.780   5.208  28.434  0.00  0.00     0.014 A 
HETATM   36  C   UNL     1       4.019   5.331  29.659  0.00  0.00     0.048 C 
ENDBRANCH  29  30
ENDBRANCH  10  29
TORSDOF 6
ENDMDL
MODEL 5
REMARK VINA RESULT:    -7.591      3.506      9.106
REMARK INTER + INTRA:         -10.915
REMARK INTER:                  -9.998
REMARK INTRA:                  -0.918
REMARK UNBOUND:                -0.884
REMARK  6 active torsions:
REMARK  status: ('A' for Active; 'I' for Inactive)
REMARK    1  A    between atoms: N_6  and  C_7 
REMARK    2  A    between atoms: C_12  and  N_13 
REMARK       I    between atoms: N_13  and  C_15 
REMARK    3  A    between atoms: C_15  and  C_17 
REMARK    4  A    between atoms: C_19  and  O_20 
REMARK    5  A    between atoms: C_27  and  C_28 
REMARK    6  A    between atoms: C_28  and  C_29 
ROOT
HETATM    1  C   UNL     1       3.170   6.989  23.877  0.00  0.00     0.066 C 
HETATM    2  C   UNL     1       2.027   6.629  24.623  0.00  0.00     0.035 C 
HETATM    3  C   UNL     1       3.653   6.065  22.929  0.00  0.00     0.083 C 
HETATM    4  C   UNL     1       3.096   4.788  22.776  0.00  0.00     0.069 C 
HETATM    5  C   UNL     1       2.085   4.429  23.672  0.00  0.00     0.065 A 
HETATM    6  C   UNL     1       1.561   5.299  24.624  0.00  0.00     0.020 A 
HETATM    7  N   UNL     1       1.391   3.263  23.838  0.00  0.00    -0.277 N 
HETATM    8  H   UNL     1       1.458   2.421  23.279  0.00  0.00     0.189 HD
HETATM    9  N   UNL     1       0.562   3.263  24.894  0.00  0.00    -0.178 NA
HETATM   10  C   UNL     1       0.670   4.502  25.411  0.00  0.00     0.071 A 
ENDROOT
BRANCH   1  11
HETATM   11  C   UNL     1       3.917   8.303  24.073  0.00  0.00     0.260 C 
HETATM   12  N   UNL     1       3.221   9.524  24.318  0.00  0.00    -0.318 N 
HETATM   13  C   UNL     1       1.755   9.553  24.456  0.00  0.00     0.159 C 
HETATM   14  O   UNL     1       5.136   8.182  24.055  0.00  0.00    -0.267 OA
BRANCH  12  15
HETATM   15  C   UNL     1       3.893  10.794  24.587  0.00  0.00     0.037 C 
HETATM   16  C   UNL     1       3.856  11.367  25.875  0.00  0.00     0.032 C 
HETATM   17  C   UNL     1       4.655  12.464  26.244  0.00  0.00     0.031 C 
HETATM   18  C   UNL     1       5.503  13.093  25.340  0.00  0.00     0.030 C 
HETATM   19  C   UNL     1       5.422  12.619  24.023  0.00  0.00     0.031 C 
HETATM   20  C   UNL     1       4.643  11.500  23.653  0.00  0.00     0.032 C 
BRANCH  18  21
HETATM   21  N   UNL     1       6.335  14.127  25.701  0.00  0.00    -0.377 N 
HETATM   22  C   UNL     1       7.013  15.026  24.752  0.00  0.00     0.149 C 
HETATM   23  C   UNL     1       8.484  15.178  25.186  0.00  0.00     0.187 C 
HETATM   24  O   UNL     1       8.607  15.623  26.550  0.00  0.00    -0.388 OA
HETATM   25  C   UNL     1       7.936  14.712  27.441  0.00  0.00     0.187 C 
HETATM   26  C   UNL     1       6.447  14.600  27.092  0.00  0.00     0.149 C 
ENDBRANCH  18  21
ENDBRANCH  12  15
ENDBRANCH   1  11
BRANCH   3  27
HETATM   27  O   UNL     1       4.701   6.334  22.080  0.00  0.00    -0.360 OA
HETATM   28  H   UNL     1       4.487   7.161  21.592  0.00  0.00     0.217 HD
ENDBRANCH   3  27
BRANCH  10  29
HETATM   29  C   UNL     1      -0.104   4.839  26.664  0.00  0.00     0.100 C 
BRANCH  29  30
HETATM   30  C   UNL     1       0.356   6.155  27.289  0.00  0.00    -0.052 A 
HETATM   31  C   UNL     1       1.374   6.232  28.251  0.00  0.00     0.007 A 
HETATM   32  C   UNL     1       1.761   7.457  28.802  0.00  0.00     0.001 A 
HETATM   33  C   UNL     1       1.080   8.625  28.473  0.00  0.00     0.007 A 
HETATM   34  C   UNL     1      -0.022   8.576  27.616  0.00  0.00    -0.061 A 
HETATM   35  C   UNL     1      -0.351   7.350  27.001  0.00  0.00     0.014 A 
HETATM   36  C   UNL     1      -0.818   9.832  27.389  0.00  0.00     0.048 C 
ENDBRANCH  29  30
ENDBRANCH  10  29
TORSDOF 6
ENDMDL
MODEL 6
REMARK VINA RESULT:    -6.982      3.034      9.346
REMARK INTER + INTRA:         -10.111
REMARK INTER:                  -9.244
REMARK INTRA:                  -0.866
REMARK UNBOUND:                -0.884
REMARK  6 active torsions:
REMARK  status: ('A' for Active; 'I' for Inactive)
REMARK    1  A    between atoms: N_6  and  C_7 
REMARK    2  A    between atoms: C_12  and  N_13 
REMARK       I    between atoms: N_13  and  C_15 
REMARK    3  A    between atoms: C_15  and  C_17 
REMARK    4  A    between atoms: C_19  and  O_20 
REMARK    5  A    between atoms: C_27  and  C_28 
REMARK    6  A    between atoms: C_28  and  C_29 
ROOT
HETATM    1  C   UNL     1       4.174   7.772  21.867  0.00  0.00     0.066 C 
HETATM    2  C   UNL     1       3.703   6.718  22.680  0.00  0.00     0.035 C 
HETATM    3  C   UNL     1       4.128   7.593  20.470  0.00  0.00     0.083 C 
HETATM    4  C   UNL     1       3.722   6.387  19.881  0.00  0.00     0.069 C 
HETATM    5  C   UNL     1       3.444   5.324  20.746  0.00  0.00     0.065 A 
HETATM    6  C   UNL     1       3.465   5.441  22.133  0.00  0.00     0.020 A 
HETATM    7  N   UNL     1       3.097   4.025  20.506  0.00  0.00    -0.277 N 
HETATM    8  H   UNL     1       2.923   3.589  19.608  0.00  0.00     0.189 HD
HETATM    9  N   UNL     1       3.020   3.263  21.609  0.00  0.00    -0.178 NA
HETATM   10  C   UNL     1       3.269   4.111  22.625  0.00  0.00     0.071 A 
ENDROOT
BRANCH   1  11
HETATM   11  C   UNL     1       4.755   9.064  22.426  0.00  0.00     0.260 C 
HETATM   12  N   UNL     1       4.040   9.850  23.379  0.00  0.00    -0.318 N 
HETATM   13  C   UNL     1       2.739   9.407  23.910  0.00  0.00     0.159 C 
HETATM   14  O   UNL     1       5.885   9.309  22.022  0.00  0.00    -0.267 OA
BRANCH  12  15
HETATM   15  C   UNL     1       4.585  11.055  24.000  0.00  0.00     0.037 C 
HETATM   16  C   UNL     1       4.397  11.301  25.376  0.00  0.00     0.032 C 
HETATM   17  C   UNL     1       5.073  12.323  26.067  0.00  0.00     0.031 C 
HETATM   18  C   UNL     1       5.941  13.196  25.422  0.00  0.00     0.030 C 
HETATM   19  C   UNL     1       6.007  13.046  24.029  0.00  0.00     0.031 C 
HETATM   20  C   UNL     1       5.351  12.005  23.334  0.00  0.00     0.032 C 
BRANCH  18  21
HETATM   21  N   UNL     1       6.656  14.161  26.093  0.00  0.00    -0.377 N 
HETATM   22  C   UNL     1       8.123  14.288  26.063  0.00  0.00     0.149 C 
HETATM   23  C   UNL     1       8.625  14.506  27.504  0.00  0.00     0.187 C 
HETATM   24  O   UNL     1       7.988  15.630  28.139  0.00  0.00    -0.388 OA
HETATM   25  C   UNL     1       6.558  15.460  28.151  0.00  0.00     0.187 C 
HETATM   26  C   UNL     1       6.010  15.323  26.725  0.00  0.00     0.149 C 
ENDBRANCH  18  21
ENDBRANCH  12  15
ENDBRANCH   1  11
BRANCH   3  27
HETATM   27  O   UNL     1       4.471   8.576  19.572  0.00  0.00    -0.360 OA
HETATM   28  H   UNL     1       4.350   8.211  18.666  0.00  0.00     0.217 HD
ENDBRANCH   3  27
BRANCH  10  29
HETATM   29  C   UNL     1       3.314   3.567  24.033  0.00  0.00     0.100 C 
BRANCH  29  30
HETATM   30  C   UNL     1       2.272   4.224  24.939  0.00  0.00    -0.052 A 
HETATM   31  C   UNL     1       0.939   3.796  25.009  0.00  0.00     0.007 A 
HETATM   32  C   UNL     1       0.016   4.429  25.847  0.00  0.00     0.001 A 
HETATM   33  C   UNL     1       0.380   5.562  26.568  0.00  0.00     0.007 A 
HETATM   34  C   UNL     1       1.662   6.098  26.431  0.00  0.00    -0.061 A 
HETATM   35  C   UNL     1       2.609   5.404  25.649  0.00  0.00     0.014 A 
HETATM   36  C   UNL     1       1.981   7.398  27.117  0.00  0.00     0.048 C 
ENDBRANCH  29  30
ENDBRANCH  10  29
TORSDOF 6
ENDMDL
MODEL 7
REMARK VINA RESULT:    -6.844      2.809      9.839
REMARK INTER + INTRA:          -9.928
REMARK INTER:                  -9.133
REMARK INTRA:                  -0.796
REMARK UNBOUND:                -0.884
REMARK  6 active torsions:
REMARK  status: ('A' for Active; 'I' for Inactive)
REMARK    1  A    between atoms: N_6  and  C_7 
REMARK    2  A    between atoms: C_12  and  N_13 
REMARK       I    between atoms: N_13  and  C_15 
REMARK    3  A    between atoms: C_15  and  C_17 
REMARK    4  A    between atoms: C_19  and  O_20 
REMARK    5  A    between atoms: C_27  and  C_28 
REMARK    6  A    between atoms: C_28  and  C_29 
ROOT
HETATM    1  C   UNL     1       4.452   7.838  21.044  0.00  0.00     0.066 C 
HETATM    2  C   UNL     1       4.277   6.687  21.843  0.00  0.00     0.035 C 
HETATM    3  C   UNL     1       4.089   7.755  19.685  0.00  0.00     0.083 C 
HETATM    4  C   UNL     1       3.653   6.559  19.097  0.00  0.00     0.069 C 
HETATM    5  C   UNL     1       3.677   5.415  19.900  0.00  0.00     0.065 A 
HETATM    6  C   UNL     1       4.020   5.435  21.250  0.00  0.00     0.020 A 
HETATM    7  N   UNL     1       3.389   4.108  19.627  0.00  0.00    -0.277 N 
HETATM    8  H   UNL     1       3.042   3.722  18.757  0.00  0.00     0.189 HD
HETATM    9  N   UNL     1       3.640   3.266  20.642  0.00  0.00    -0.178 NA
HETATM   10  C   UNL     1       4.056   4.060  21.647  0.00  0.00     0.071 A 
ENDROOT
BRANCH   1  11
HETATM   11  C   UNL     1       5.043   9.139  21.571  0.00  0.00     0.260 C 
HETATM   12  N   UNL     1       4.587   9.723  22.790  0.00  0.00    -0.318 N 
HETATM   13  C   UNL     1       3.572   9.055  23.623  0.00  0.00     0.159 C 
HETATM   14  O   UNL     1       5.958   9.576  20.883  0.00  0.00    -0.267 OA
BRANCH  12  15
HETATM   15  C   UNL     1       5.173  10.927  23.375  0.00  0.00     0.037 C 
HETATM   16  C   UNL     1       4.365  11.859  24.059  0.00  0.00     0.032 C 
HETATM   17  C   UNL     1       4.898  12.916  24.820  0.00  0.00     0.031 C 
HETATM   18  C   UNL     1       6.266  13.142  24.906  0.00  0.00     0.030 C 
HETATM   19  C   UNL     1       7.057  12.310  24.102  0.00  0.00     0.031 C 
HETATM   20  C   UNL     1       6.530  11.230  23.357  0.00  0.00     0.032 C 
BRANCH  18  21
HETATM   21  N   UNL     1       6.805  14.133  25.694  0.00  0.00    -0.377 N 
HETATM   22  C   UNL     1       8.241  14.451  25.773  0.00  0.00     0.149 C 
HETATM   23  C   UNL     1       8.625  14.613  27.257  0.00  0.00     0.187 C 
HETATM   24  O   UNL     1       7.807  15.589  27.929  0.00  0.00    -0.388 OA
HETATM   25  C   UNL     1       6.414  15.235  27.830  0.00  0.00     0.187 C 
HETATM   26  C   UNL     1       5.973  15.146  26.364  0.00  0.00     0.149 C 
ENDBRANCH  18  21
ENDBRANCH  12  15
ENDBRANCH   1  11
BRANCH   3  27
HETATM   27  O   UNL     1       4.126   8.829  18.827  0.00  0.00    -0.360 OA
HETATM   28  H   UNL     1       4.551   8.531  17.991  0.00  0.00     0.217 HD
ENDBRANCH   3  27
BRANCH  10  29
HETATM   29  C   UNL     1       4.480   3.424  22.950  0.00  0.00     0.100 C 
BRANCH  29  30
HETATM   30  C   UNL     1       5.841   3.933  23.424  0.00  0.00    -0.052 A 
HETATM   31  C   UNL     1       6.959   4.028  22.582  0.00  0.00     0.007 A 
HETATM   32  C   UNL     1       8.188   4.494  23.057  0.00  0.00     0.001 A 
HETATM   33  C   UNL     1       8.355   4.793  24.406  0.00  0.00     0.007 A 
HETATM   34  C   UNL     1       7.304   4.592  25.304  0.00  0.00    -0.061 A 
HETATM   35  C   UNL     1       6.045   4.202  24.801  0.00  0.00     0.014 A 
HETATM   36  C   UNL     1       7.559   4.794  26.773  0.00  0.00     0.048 C 
ENDBRANCH  29  30
ENDBRANCH  10  29
TORSDOF 6
ENDMDL
MODEL 8
REMARK VINA RESULT:    -6.808      2.970      9.290
REMARK INTER + INTRA:          -9.880
REMARK INTER:                  -9.777
REMARK INTRA:                  -0.104
REMARK UNBOUND:                -0.884
REMARK  6 active torsions:
REMARK  status: ('A' for Active; 'I' for Inactive)
REMARK    1  A    between atoms: N_6  and  C_7 
REMARK    2  A    between atoms: C_12  and  N_13 
REMARK       I    between atoms: N_13  and  C_15 
REMARK    3  A    between atoms: C_15  and  C_17 
REMARK    4  A    between atoms: C_19  and  O_20 
REMARK    5  A    between atoms: C_27  and  C_28 
REMARK    6  A    between atoms: C_28  and  C_29 
ROOT
HETATM    1  C   UNL     1       4.139   7.771  21.732  0.00  0.00     0.066 C 
HETATM    2  C   UNL     1       3.641   6.758  22.579  0.00  0.00     0.035 C 
HETATM    3  C   UNL     1       4.127   7.531  20.344  0.00  0.00     0.083 C 
HETATM    4  C   UNL     1       3.727   6.302  19.799  0.00  0.00     0.069 C 
HETATM    5  C   UNL     1       3.420   5.281  20.703  0.00  0.00     0.065 A 
HETATM    6  C   UNL     1       3.408   5.460  22.084  0.00  0.00     0.020 A 
HETATM    7  N   UNL     1       3.069   3.974  20.512  0.00  0.00    -0.277 N 
HETATM    8  H   UNL     1       2.915   3.500  19.630  0.00  0.00     0.189 HD
HETATM    9  N   UNL     1       2.960   3.263  21.645  0.00  0.00    -0.178 NA
HETATM   10  C   UNL     1       3.190   4.154  22.629  0.00  0.00     0.071 A 
ENDROOT
BRANCH   1  11
HETATM   11  C   UNL     1       4.716   9.084  22.248  0.00  0.00     0.260 C 
HETATM   12  N   UNL     1       4.121   9.778  23.343  0.00  0.00    -0.318 N 
HETATM   13  C   UNL     1       2.963   9.219  24.062  0.00  0.00     0.159 C 
HETATM   14  O   UNL     1       5.741   9.429  21.672  0.00  0.00    -0.267 OA
BRANCH  12  15
HETATM   15  C   UNL     1       4.679  10.998  23.921  0.00  0.00     0.037 C 
HETATM   16  C   UNL     1       4.253  11.452  25.188  0.00  0.00     0.032 C 
HETATM   17  C   UNL     1       4.902  12.489  25.883  0.00  0.00     0.031 C 
HETATM   18  C   UNL     1       5.983  13.173  25.340  0.00  0.00     0.030 C 
HETATM   19  C   UNL     1       6.305  12.824  24.021  0.00  0.00     0.031 C 
HETATM   20  C   UNL     1       5.675  11.766  23.328  0.00  0.00     0.032 C 
BRANCH  18  21
HETATM   21  N   UNL     1       6.666  14.147  26.032  0.00  0.00    -0.377 N 
HETATM   22  C   UNL     1       8.128  14.325  26.002  0.00  0.00     0.149 C 
HETATM   23  C   UNL     1       8.625  14.529  27.447  0.00  0.00     0.187 C 
HETATM   24  O   UNL     1       7.951  15.616  28.108  0.00  0.00    -0.388 OA
HETATM   25  C   UNL     1       6.527  15.396  28.118  0.00  0.00     0.187 C 
HETATM   26  C   UNL     1       5.981  15.272  26.690  0.00  0.00     0.149 C 
ENDBRANCH  18  21
ENDBRANCH  12  15
ENDBRANCH   1  11
BRANCH   3  27
HETATM   27  O   UNL     1       4.500   8.471  19.412  0.00  0.00    -0.360 OA
HETATM   28  H   UNL     1       4.488   9.351  19.851  0.00  0.00     0.217 HD
ENDBRANCH   3  27
BRANCH  10  29
HETATM   29  C   UNL     1       3.196   3.673  24.060  0.00  0.00     0.100 C 
BRANCH  29  30
HETATM   30  C   UNL     1       2.557   4.685  25.012  0.00  0.00    -0.052 A 
HETATM   31  C   UNL     1       3.274   5.732  25.610  0.00  0.00     0.007 A 
HETATM   32  C   UNL     1       2.652   6.633  26.478  0.00  0.00     0.001 A 
HETATM   33  C   UNL     1       1.320   6.458  26.842  0.00  0.00     0.007 A 
HETATM   34  C   UNL     1       0.604   5.356  26.370  0.00  0.00    -0.061 A 
HETATM   35  C   UNL     1       1.215   4.501  25.429  0.00  0.00     0.014 A 
HETATM   36  C   UNL     1      -0.788   5.121  26.888  0.00  0.00     0.048 C 
ENDBRANCH  29  30
ENDBRANCH  10  29
TORSDOF 6
ENDMDL
MODEL 9
REMARK VINA RESULT:    -6.398      6.035      8.143
REMARK INTER + INTRA:          -9.339
REMARK INTER:                  -8.455
REMARK INTRA:                  -0.884
REMARK UNBOUND:                -0.884
REMARK  6 active torsions:
REMARK  status: ('A' for Active; 'I' for Inactive)
REMARK    1  A    between atoms: N_6  and  C_7 
REMARK    2  A    between atoms: C_12  and  N_13 
REMARK       I    between atoms: N_13  and  C_15 
REMARK    3  A    between atoms: C_15  and  C_17 
REMARK    4  A    between atoms: C_19  and  O_20 
REMARK    5  A    between atoms: C_27  and  C_28 
REMARK    6  A    between atoms: C_28  and  C_29 
ROOT
HETATM    1  C   UNL     1       1.772   7.263  27.970  0.00  0.00     0.066 C 
HETATM    2  C   UNL     1       2.552   6.939  29.101  0.00  0.00     0.035 C 
HETATM    3  C   UNL     1       0.471   7.757  28.190  0.00  0.00     0.083 C 
HETATM    4  C   UNL     1      -0.090   7.847  29.471  0.00  0.00     0.069 C 
HETATM    5  C   UNL     1       0.668   7.339  30.530  0.00  0.00     0.065 A 
HETATM    6  C   UNL     1       1.960   6.844  30.377  0.00  0.00     0.020 A 
HETATM    7  N   UNL     1       0.396   7.212  31.863  0.00  0.00    -0.277 N 
HETATM    8  H   UNL     1      -0.433   7.525  32.355  0.00  0.00     0.189 HD
HETATM    9  N   UNL     1       1.343   6.562  32.558  0.00  0.00    -0.178 NA
HETATM   10  C   UNL     1       2.308   6.302  31.656  0.00  0.00     0.071 A 
ENDROOT
BRANCH   1  11
HETATM   11  C   UNL     1       2.256   7.071  26.538  0.00  0.00     0.260 C 
HETATM   12  N   UNL     1       2.377   5.772  25.962  0.00  0.00    -0.318 N 
HETATM   13  C   UNL     1       1.974   4.567  26.707  0.00  0.00     0.159 C 
HETATM   14  O   UNL     1       2.466   8.124  25.946  0.00  0.00    -0.267 OA
BRANCH  12  15
HETATM   15  C   UNL     1       2.763   5.540  24.572  0.00  0.00     0.037 C 
HETATM   16  C   UNL     1       3.007   4.232  24.103  0.00  0.00     0.032 C 
HETATM   17  C   UNL     1       3.171   3.930  22.738  0.00  0.00     0.031 C 
HETATM   18  C   UNL     1       3.152   4.917  21.760  0.00  0.00     0.030 C 
HETATM   19  C   UNL     1       3.064   6.230  22.243  0.00  0.00     0.031 C 
HETATM   20  C   UNL     1       2.873   6.538  23.609  0.00  0.00     0.032 C 
BRANCH  18  21
HETATM   21  N   UNL     1       3.249   4.631  20.418  0.00  0.00    -0.377 N 
HETATM   22  C   UNL     1       3.739   5.572  19.395  0.00  0.00     0.149 C 
HETATM   23  C   UNL     1       2.779   5.527  18.190  0.00  0.00     0.187 C 
HETATM   24  O   UNL     1       2.610   4.193  17.676  0.00  0.00    -0.388 OA
HETATM   25  C   UNL     1       2.125   3.312  18.707  0.00  0.00     0.187 C 
HETATM   26  C   UNL     1       3.099   3.264  19.891  0.00  0.00     0.149 C 
ENDBRANCH  18  21
ENDBRANCH  12  15
ENDBRANCH   1  11
BRANCH   3  27
HETATM   27  O   UNL     1      -0.351   8.193  27.177  0.00  0.00    -0.360 OA
HETATM   28  H   UNL     1      -0.606   9.122  27.376  0.00  0.00     0.217 HD
ENDBRANCH   3  27
BRANCH  10  29
HETATM   29  C   UNL     1       3.524   5.521  32.094  0.00  0.00     0.100 C 
BRANCH  29  30
HETATM   30  C   UNL     1       4.332   4.996  30.907  0.00  0.00    -0.052 A 
HETATM   31  C   UNL     1       3.921   3.909  30.122  0.00  0.00     0.007 A 
HETATM   32  C   UNL     1       4.692   3.457  29.048  0.00  0.00     0.001 A 
HETATM   33  C   UNL     1       5.937   4.023  28.786  0.00  0.00     0.007 A 
HETATM   34  C   UNL     1       6.442   5.023  29.619  0.00  0.00    -0.061 A 
HETATM   35  C   UNL     1       5.620   5.529  30.649  0.00  0.00     0.014 A 
HETATM   36  C   UNL     1       7.844   5.517  29.391  0.00  0.00     0.048 C 
ENDBRANCH  29  30
ENDBRANCH  10  29
TORSDOF 6
ENDMDL
