MODEL 1
REMARK VINA RESULT:    -9.692      0.000      0.000
REMARK INTER + INTRA:         -12.550
REMARK INTER:                 -11.411
REMARK INTRA:                  -1.139
REMARK UNBOUND:                -1.158
REMARK  3 active torsions:
REMARK  status: ('A' for Active; 'I' for Inactive)
REMARK    1  A    between atoms: C_10  and  C_11 
REMARK       I    between atoms: C_11  and  N_13 
REMARK    2  A    between atoms: N_13  and  C_14 
REMARK    3  A    between atoms: C_23  and  C_27 
ROOT
HETATM    1  C   UNL     1      -1.395   9.707  26.657  0.00  0.00     0.153 C 
HETATM    2  C   UNL     1      -0.438  10.348  25.673  0.00  0.00    -0.020 A 
HETATM    3  C   UNL     1      -1.148  11.243  24.834  0.00  0.00    -0.016 A 
HETATM    4  C   UNL     1       0.905  10.045  25.468  0.00  0.00     0.010 A 
HETATM    5  C   UNL     1       1.555  10.621  24.376  0.00  0.00     0.001 A 
HETATM    6  C   UNL     1       0.850  11.449  23.497  0.00  0.00     0.001 A 
HETATM    7  C   UNL     1      -0.497  11.751  23.724  0.00  0.00     0.013 A 
HETATM    8  C   UNL     1      -2.610  10.614  26.535  0.00  0.00    -0.019 A 
HETATM    9  C   UNL     1      -2.508  11.435  25.364  0.00  0.00    -0.003 A 
HETATM   10  C   UNL     1      -3.614  12.209  24.961  0.00  0.00     0.022 A 
HETATM   11  C   UNL     1      -4.775  12.139  25.768  0.00  0.00     0.016 A 
HETATM   12  C   UNL     1      -4.834  11.360  26.937  0.00  0.00     0.002 A 
HETATM   13  C   UNL     1      -3.748  10.589  27.329  0.00  0.00     0.010 A 
ENDROOT
BRANCH   1  14
HETATM   14  N   UNL     1      -0.862   9.484  27.981  0.00  0.00    -0.344 N 
HETATM   15  C   UNL     1      -0.596   8.191  28.410  0.00  0.00     0.253 C 
HETATM   16  O   UNL     1      -0.975   7.198  27.798  0.00  0.00    -0.268 OA
HETATM   17  H   UNL     1      -0.672  10.284  28.567  0.00  0.00     0.163 HD
BRANCH  15  18
HETATM   18  C   UNL     1       0.213   8.028  29.644  0.00  0.00     0.047 A 
HETATM   19  C   UNL     1       1.625   7.976  29.580  0.00  0.00     0.027 A 
HETATM   20  C   UNL     1       2.629   7.999  28.566  0.00  0.00     0.033 A 
HETATM   21  C   UNL     1       2.306   7.889  30.792  0.00  0.00     0.138 A 
HETATM   22  C   UNL     1       3.860   7.914  29.176  0.00  0.00     0.090 A 
HETATM   23  N   UNL     1       3.647   7.842  30.525  0.00  0.00    -0.350 N 
HETATM   24  H   UNL     1       4.357   7.786  31.246  0.00  0.00     0.166 HD
HETATM   25  N   UNL     1       1.783   7.857  32.028  0.00  0.00    -0.242 NA
HETATM   26  C   UNL     1       0.434   7.944  32.033  0.00  0.00     0.120 A 
HETATM   27  C   UNL     1      -0.379   8.030  30.913  0.00  0.00     0.037 A 
ENDBRANCH  15  18
ENDBRANCH   1  14
BRANCH  10  28
HETATM   28  C   UNL     1      -3.637  13.084  23.774  0.00  0.00     0.140 A 
HETATM   29  N   UNL     1      -4.514  12.940  22.712  0.00  0.00    -0.338 N 
HETATM   30  H   UNL     1      -5.224  12.227  22.634  0.00  0.00     0.167 HD
HETATM   31  C   UNL     1      -4.215  13.877  21.749  0.00  0.00     0.063 A 
HETATM   32  C   UNL     1      -3.147  14.579  22.290  0.00  0.00     0.088 A 
HETATM   33  C   UNL     1      -4.752  14.159  20.488  0.00  0.00     0.035 A 
HETATM   34  N   UNL     1      -2.863  14.128  23.551  0.00  0.00    -0.228 NA
HETATM   35  C   UNL     1      -2.518  15.579  21.544  0.00  0.00     0.076 A 
HETATM   36  C   UNL     1      -3.023  15.859  20.277  0.00  0.00     0.118 A 
HETATM   37  F   UNL     1      -2.434  16.808  19.536  0.00  0.00    -0.206 F 
HETATM   38  C   UNL     1      -4.124  15.179  19.758  0.00  0.00     0.044 A 
ENDBRANCH  10  28
TORSDOF 3
ENDMDL
MODEL 2
REMARK VINA RESULT:    -9.269      3.519      9.943
REMARK INTER + INTRA:         -12.052
REMARK INTER:                 -11.003
REMARK INTRA:                  -1.049
REMARK UNBOUND:                -1.158
REMARK  3 active torsions:
REMARK  status: ('A' for Active; 'I' for Inactive)
REMARK    1  A    between atoms: C_10  and  C_11 
REMARK       I    between atoms: C_11  and  N_13 
REMARK    2  A    between atoms: N_13  and  C_14 
REMARK    3  A    between atoms: C_23  and  C_27 
ROOT
HETATM    1  C   UNL     1      -2.454  11.265  23.690  0.00  0.00     0.153 C 
HETATM    2  C   UNL     1      -3.074  11.370  25.068  0.00  0.00    -0.020 A 
HETATM    3  C   UNL     1      -2.348  10.560  25.978  0.00  0.00    -0.016 A 
HETATM    4  C   UNL     1      -4.252  12.017  25.427  0.00  0.00     0.010 A 
HETATM    5  C   UNL     1      -4.746  11.827  26.718  0.00  0.00     0.001 A 
HETATM    6  C   UNL     1      -4.083  10.974  27.605  0.00  0.00     0.001 A 
HETATM    7  C   UNL     1      -2.892  10.340  27.231  0.00  0.00     0.013 A 
HETATM    8  C   UNL     1      -1.106  10.637  24.009  0.00  0.00    -0.019 A 
HETATM    9  C   UNL     1      -1.105  10.101  25.339  0.00  0.00    -0.003 A 
HETATM   10  C   UNL     1      -0.022   9.308  25.766  0.00  0.00     0.022 A 
HETATM   11  C   UNL     1       1.029   9.103  24.840  0.00  0.00     0.016 A 
HETATM   12  C   UNL     1       1.024   9.676  23.556  0.00  0.00     0.002 A 
HETATM   13  C   UNL     1      -0.049  10.449  23.131  0.00  0.00     0.010 A 
ENDROOT
BRANCH   1  14
HETATM   14  N   UNL     1      -2.451  12.488  22.919  0.00  0.00    -0.344 N 
HETATM   15  C   UNL     1      -2.740  12.450  21.563  0.00  0.00     0.253 C 
HETATM   16  O   UNL     1      -2.805  11.403  20.928  0.00  0.00    -0.268 OA
HETATM   17  H   UNL     1      -2.258  13.358  23.394  0.00  0.00     0.163 HD
BRANCH  15  18
HETATM   18  C   UNL     1      -3.012  13.740  20.880  0.00  0.00     0.047 A 
HETATM   19  C   UNL     1      -2.060  14.786  20.909  0.00  0.00     0.027 A 
HETATM   20  C   UNL     1      -0.779  15.021  21.493  0.00  0.00     0.033 A 
HETATM   21  C   UNL     1      -2.369  15.936  20.186  0.00  0.00     0.138 A 
HETATM   22  C   UNL     1      -0.364  16.282  21.128  0.00  0.00     0.090 A 
HETATM   23  N   UNL     1      -1.341  16.826  20.341  0.00  0.00    -0.350 N 
HETATM   24  H   UNL     1      -1.325  17.739  19.904  0.00  0.00     0.166 HD
HETATM   25  N   UNL     1      -3.466  16.174  19.451  0.00  0.00    -0.242 NA
HETATM   26  C   UNL     1      -4.326  15.131  19.431  0.00  0.00     0.120 A 
HETATM   27  C   UNL     1      -4.160  13.928  20.100  0.00  0.00     0.037 A 
ENDBRANCH  15  18
ENDBRANCH   1  14
BRANCH  10  28
HETATM   28  C   UNL     1       0.093   8.695  27.102  0.00  0.00     0.140 A 
HETATM   29  N   UNL     1      -0.611   7.574  27.513  0.00  0.00    -0.338 N 
HETATM   30  H   UNL     1      -1.274   7.062  26.949  0.00  0.00     0.167 HD
HETATM   31  C   UNL     1      -0.320   7.315  28.832  0.00  0.00     0.063 A 
HETATM   32  C   UNL     1       0.587   8.310  29.172  0.00  0.00     0.088 A 
HETATM   33  C   UNL     1      -0.759   6.343  29.738  0.00  0.00     0.035 A 
HETATM   34  N   UNL     1       0.878   9.089  28.085  0.00  0.00    -0.228 NA
HETATM   35  C   UNL     1       1.056   8.409  30.485  0.00  0.00     0.076 A 
HETATM   36  C   UNL     1       0.612   7.465  31.407  0.00  0.00     0.118 A 
HETATM   37  F   UNL     1       1.038   7.541  32.675  0.00  0.00    -0.206 F 
HETATM   38  C   UNL     1      -0.265   6.443  31.047  0.00  0.00     0.044 A 
ENDBRANCH  10  28
TORSDOF 3
ENDMDL
MODEL 3
REMARK VINA RESULT:    -9.151      0.992      1.711
REMARK INTER + INTRA:         -11.914
REMARK INTER:                 -10.841
REMARK INTRA:                  -1.072
REMARK UNBOUND:                -1.158
REMARK  3 active torsions:
REMARK  status: ('A' for Active; 'I' for Inactive)
REMARK    1  A    between atoms: C_10  and  C_11 
REMARK       I    between atoms: C_11  and  N_13 
REMARK    2  A    between atoms: N_13  and  C_14 
REMARK    3  A    between atoms: C_23  and  C_27 
ROOT
HETATM    1  C   UNL     1      -1.433   9.464  26.172  0.00  0.00     0.153 C 
HETATM    2  C   UNL     1      -0.607   9.900  24.979  0.00  0.00    -0.020 A 
HETATM    3  C   UNL     1      -1.309  10.895  24.253  0.00  0.00    -0.016 A 
HETATM    4  C   UNL     1       0.588   9.352  24.522  0.00  0.00     0.010 A 
HETATM    5  C   UNL     1       1.084   9.778  23.289  0.00  0.00     0.001 A 
HETATM    6  C   UNL     1       0.367  10.705  22.527  0.00  0.00     0.001 A 
HETATM    7  C   UNL     1      -0.828  11.254  23.007  0.00  0.00     0.013 A 
HETATM    8  C   UNL     1      -2.467  10.578  26.249  0.00  0.00    -0.019 A 
HETATM    9  C   UNL     1      -2.471  11.343  25.038  0.00  0.00    -0.003 A 
HETATM   10  C   UNL     1      -3.483  12.300  24.825  0.00  0.00     0.022 A 
HETATM   11  C   UNL     1      -4.441  12.460  25.855  0.00  0.00     0.016 A 
HETATM   12  C   UNL     1      -4.389  11.727  27.054  0.00  0.00     0.002 A 
HETATM   13  C   UNL     1      -3.398  10.776  27.258  0.00  0.00     0.010 A 
ENDROOT
BRANCH   1  14
HETATM   14  N   UNL     1      -0.680   9.172  27.371  0.00  0.00    -0.344 N 
HETATM   15  C   UNL     1      -0.245   7.877  27.613  0.00  0.00     0.253 C 
HETATM   16  O   UNL     1      -0.634   6.913  26.962  0.00  0.00    -0.268 OA
HETATM   17  H   UNL     1      -0.465   9.929  28.003  0.00  0.00     0.163 HD
BRANCH  15  18
HETATM   18  C   UNL     1       0.760   7.679  28.689  0.00  0.00     0.047 A 
HETATM   19  C   UNL     1       0.467   6.868  29.809  0.00  0.00     0.027 A 
HETATM   20  C   UNL     1      -0.646   6.120  30.299  0.00  0.00     0.033 A 
HETATM   21  C   UNL     1       1.490   6.683  30.736  0.00  0.00     0.138 A 
HETATM   22  C   UNL     1      -0.279   5.528  31.487  0.00  0.00     0.090 A 
HETATM   23  N   UNL     1       1.017   5.884  31.741  0.00  0.00    -0.350 N 
HETATM   24  H   UNL     1       1.577   5.596  32.534  0.00  0.00     0.166 HD
HETATM   25  N   UNL     1       2.737   7.178  30.692  0.00  0.00    -0.242 NA
HETATM   26  C   UNL     1       2.974   7.917  29.586  0.00  0.00     0.120 A 
HETATM   27  C   UNL     1       2.058   8.193  28.582  0.00  0.00     0.037 A 
ENDBRANCH  15  18
ENDBRANCH   1  14
BRANCH  10  28
HETATM   28  C   UNL     1      -3.601  13.142  23.621  0.00  0.00     0.140 A 
HETATM   29  N   UNL     1      -4.485  12.903  22.581  0.00  0.00    -0.338 N 
HETATM   30  H   UNL     1      -5.137  12.133  22.534  0.00  0.00     0.167 HD
HETATM   31  C   UNL     1      -4.284  13.838  21.592  0.00  0.00     0.063 A 
HETATM   32  C   UNL     1      -3.265  14.636  22.094  0.00  0.00     0.088 A 
HETATM   33  C   UNL     1      -4.867  14.046  20.337  0.00  0.00     0.035 A 
HETATM   34  N   UNL     1      -2.920  14.240  23.358  0.00  0.00    -0.228 NA
HETATM   35  C   UNL     1      -2.735  15.667  21.312  0.00  0.00     0.076 A 
HETATM   36  C   UNL     1      -3.288  15.875  20.051  0.00  0.00     0.118 A 
HETATM   37  F   UNL     1      -2.793  16.851  19.276  0.00  0.00    -0.206 F 
HETATM   38  C   UNL     1      -4.339  15.096  19.571  0.00  0.00     0.044 A 
ENDBRANCH  10  28
TORSDOF 3
ENDMDL
MODEL 4
REMARK VINA RESULT:    -8.919      3.669     10.178
REMARK INTER + INTRA:         -11.641
REMARK INTER:                 -10.533
REMARK INTRA:                  -1.108
REMARK UNBOUND:                -1.158
REMARK  3 active torsions:
REMARK  status: ('A' for Active; 'I' for Inactive)
REMARK    1  A    between atoms: C_10  and  C_11 
REMARK       I    between atoms: C_11  and  N_13 
REMARK    2  A    between atoms: N_13  and  C_14 
REMARK    3  A    between atoms: C_23  and  C_27 
ROOT
HETATM    1  C   UNL     1      -1.635  11.484  24.063  0.00  0.00     0.153 C 
HETATM    2  C   UNL     1      -2.631  11.458  25.204  0.00  0.00    -0.020 A 
HETATM    3  C   UNL     1      -2.151  10.612  26.235  0.00  0.00    -0.016 A 
HETATM    4  C   UNL     1      -3.900  12.029  25.243  0.00  0.00     0.010 A 
HETATM    5  C   UNL     1      -4.733  11.722  26.320  0.00  0.00     0.001 A 
HETATM    6  C   UNL     1      -4.302  10.831  27.308  0.00  0.00     0.001 A 
HETATM    7  C   UNL     1      -3.019  10.275  27.259  0.00  0.00     0.013 A 
HETATM    8  C   UNL     1      -0.401  10.888  24.723  0.00  0.00    -0.019 A 
HETATM    9  C   UNL     1      -0.750  10.253  25.960  0.00  0.00    -0.003 A 
HETATM   10  C   UNL     1       0.210   9.474  26.636  0.00  0.00     0.022 A 
HETATM   11  C   UNL     1       1.493   9.382  26.045  0.00  0.00     0.016 A 
HETATM   12  C   UNL     1       1.823  10.051  24.853  0.00  0.00     0.002 A 
HETATM   13  C   UNL     1       0.874  10.810  24.181  0.00  0.00     0.010 A 
ENDROOT
BRANCH   1  14
HETATM   14  N   UNL     1      -1.485  12.761  23.403  0.00  0.00    -0.344 N 
HETATM   15  C   UNL     1      -1.358  12.813  22.023  0.00  0.00     0.253 C 
HETATM   16  O   UNL     1      -1.165  11.816  21.336  0.00  0.00    -0.268 OA
HETATM   17  H   UNL     1      -1.497  13.600  23.965  0.00  0.00     0.163 HD
BRANCH  15  18
HETATM   18  C   UNL     1      -1.500  14.139  21.368  0.00  0.00     0.047 A 
HETATM   19  C   UNL     1      -2.650  14.448  20.606  0.00  0.00     0.027 A 
HETATM   20  C   UNL     1      -3.844  13.782  20.195  0.00  0.00     0.033 A 
HETATM   21  C   UNL     1      -2.730  15.736  20.084  0.00  0.00     0.138 A 
HETATM   22  C   UNL     1      -4.590  14.661  19.442  0.00  0.00     0.090 A 
HETATM   23  N   UNL     1      -3.899  15.839  19.379  0.00  0.00    -0.350 N 
HETATM   24  H   UNL     1      -4.193  16.687  18.909  0.00  0.00     0.166 HD
HETATM   25  N   UNL     1      -1.845  16.736  20.223  0.00  0.00    -0.242 NA
HETATM   26  C   UNL     1      -0.783  16.398  20.988  0.00  0.00     0.120 A 
HETATM   27  C   UNL     1      -0.561  15.159  21.569  0.00  0.00     0.037 A 
ENDBRANCH  15  18
ENDBRANCH   1  14
BRANCH  10  28
HETATM   28  C   UNL     1      -0.029   8.766  27.907  0.00  0.00     0.140 A 
HETATM   29  N   UNL     1       0.095   9.343  29.160  0.00  0.00    -0.338 N 
HETATM   30  H   UNL     1       0.361  10.301  29.338  0.00  0.00     0.167 HD
HETATM   31  C   UNL     1      -0.131   8.386  30.123  0.00  0.00     0.063 A 
HETATM   32  C   UNL     1      -0.404   7.239  29.391  0.00  0.00     0.088 A 
HETATM   33  C   UNL     1      -0.109   8.411  31.521  0.00  0.00     0.035 A 
HETATM   34  N   UNL     1      -0.410   7.512  28.050  0.00  0.00    -0.228 NA
HETATM   35  C   UNL     1      -0.613   6.023  30.049  0.00  0.00     0.076 A 
HETATM   36  C   UNL     1      -0.572   6.023  31.441  0.00  0.00     0.118 A 
HETATM   37  F   UNL     1      -0.760   4.870  32.098  0.00  0.00    -0.206 F 
HETATM   38  C   UNL     1      -0.340   7.188  32.169  0.00  0.00     0.044 A 
ENDBRANCH  10  28
TORSDOF 3
ENDMDL
MODEL 5
REMARK VINA RESULT:    -8.893      3.525      9.830
REMARK INTER + INTRA:         -11.610
REMARK INTER:                 -10.975
REMARK INTRA:                  -0.635
REMARK UNBOUND:                -1.158
REMARK  3 active torsions:
REMARK  status: ('A' for Active; 'I' for Inactive)
REMARK    1  A    between atoms: C_10  and  C_11 
REMARK       I    between atoms: C_11  and  N_13 
REMARK    2  A    between atoms: N_13  and  C_14 
REMARK    3  A    between atoms: C_23  and  C_27 
ROOT
HETATM    1  C   UNL     1      -2.354  11.416  23.194  0.00  0.00     0.153 C 
HETATM    2  C   UNL     1      -3.070  11.570  24.520  0.00  0.00    -0.020 A 
HETATM    3  C   UNL     1      -2.456  10.737  25.490  0.00  0.00    -0.016 A 
HETATM    4  C   UNL     1      -4.237  12.281  24.782  0.00  0.00     0.010 A 
HETATM    5  C   UNL     1      -4.835  12.134  26.035  0.00  0.00     0.001 A 
HETATM    6  C   UNL     1      -4.284  11.261  26.977  0.00  0.00     0.001 A 
HETATM    7  C   UNL     1      -3.104  10.561  26.700  0.00  0.00     0.013 A 
HETATM    8  C   UNL     1      -1.068  10.724  23.620  0.00  0.00    -0.019 A 
HETATM    9  C   UNL     1      -1.194  10.207  24.951  0.00  0.00    -0.003 A 
HETATM   10  C   UNL     1      -0.188   9.366  25.467  0.00  0.00     0.022 A 
HETATM   11  C   UNL     1       0.917   9.096  24.624  0.00  0.00     0.016 A 
HETATM   12  C   UNL     1       1.037   9.652  23.338  0.00  0.00     0.002 A 
HETATM   13  C   UNL     1       0.041  10.471  22.825  0.00  0.00     0.010 A 
ENDROOT
BRANCH   1  14
HETATM   14  N   UNL     1      -2.231  12.626  22.413  0.00  0.00    -0.344 N 
HETATM   15  C   UNL     1      -1.490  13.691  22.903  0.00  0.00     0.253 C 
HETATM   16  O   UNL     1      -1.090  13.744  24.061  0.00  0.00    -0.268 OA
HETATM   17  H   UNL     1      -2.675  12.663  21.507  0.00  0.00     0.163 HD
BRANCH  15  18
HETATM   18  C   UNL     1      -1.150  14.785  21.959  0.00  0.00     0.047 A 
HETATM   19  C   UNL     1      -2.168  15.498  21.283  0.00  0.00     0.027 A 
HETATM   20  C   UNL     1      -3.592  15.458  21.194  0.00  0.00     0.033 A 
HETATM   21  C   UNL     1      -1.762  16.551  20.467  0.00  0.00     0.138 A 
HETATM   22  C   UNL     1      -3.998  16.457  20.338  0.00  0.00     0.090 A 
HETATM   23  N   UNL     1      -2.877  17.106  19.901  0.00  0.00    -0.350 N 
HETATM   24  H   UNL     1      -2.845  17.899  19.271  0.00  0.00     0.166 HD
HETATM   25  N   UNL     1      -0.511  16.985  20.248  0.00  0.00    -0.242 NA
HETATM   26  C   UNL     1       0.419  16.292  20.943  0.00  0.00     0.120 A 
HETATM   27  C   UNL     1       0.170  15.220  21.786  0.00  0.00     0.037 A 
ENDBRANCH  15  18
ENDBRANCH   1  14
BRANCH  10  28
HETATM   28  C   UNL     1      -0.206   8.766  26.814  0.00  0.00     0.140 A 
HETATM   29  N   UNL     1      -0.385   7.416  27.067  0.00  0.00    -0.338 N 
HETATM   30  H   UNL     1      -0.524   6.704  26.366  0.00  0.00     0.167 HD
HETATM   31  C   UNL     1      -0.417   7.212  28.428  0.00  0.00     0.063 A 
HETATM   32  C   UNL     1      -0.236   8.483  28.957  0.00  0.00     0.088 A 
HETATM   33  C   UNL     1      -0.596   6.075  29.222  0.00  0.00     0.035 A 
HETATM   34  N   UNL     1      -0.035   9.397  27.958  0.00  0.00    -0.228 NA
HETATM   35  C   UNL     1      -0.289   8.678  30.340  0.00  0.00     0.076 A 
HETATM   36  C   UNL     1      -0.489   7.560  31.147  0.00  0.00     0.118 A 
HETATM   37  F   UNL     1      -0.553   7.719  32.476  0.00  0.00    -0.206 F 
HETATM   38  C   UNL     1      -0.626   6.282  30.609  0.00  0.00     0.044 A 
ENDBRANCH  10  28
TORSDOF 3
ENDMDL
MODEL 6
REMARK VINA RESULT:    -8.822      3.805      9.510
REMARK INTER + INTRA:         -11.526
REMARK INTER:                 -10.673
REMARK INTRA:                  -0.853
REMARK UNBOUND:                -1.158
REMARK  3 active torsions:
REMARK  status: ('A' for Active; 'I' for Inactive)
REMARK    1  A    between atoms: C_10  and  C_11 
REMARK       I    between atoms: C_11  and  N_13 
REMARK    2  A    between atoms: N_13  and  C_14 
REMARK    3  A    between atoms: C_23  and  C_27 
ROOT
HETATM    1  C   UNL     1      -2.065  11.285  23.398  0.00  0.00     0.153 C 
HETATM    2  C   UNL     1      -2.866  11.466  24.672  0.00  0.00    -0.020 A 
HETATM    3  C   UNL     1      -2.352  10.612  25.680  0.00  0.00    -0.016 A 
HETATM    4  C   UNL     1      -4.022  12.218  24.853  0.00  0.00     0.010 A 
HETATM    5  C   UNL     1      -4.712  12.094  26.060  0.00  0.00     0.001 A 
HETATM    6  C   UNL     1      -4.260  11.202  27.037  0.00  0.00     0.001 A 
HETATM    7  C   UNL     1      -3.088  10.461  26.842  0.00  0.00     0.013 A 
HETATM    8  C   UNL     1      -0.837  10.548  23.913  0.00  0.00    -0.019 A 
HETATM    9  C   UNL     1      -1.074  10.037  25.231  0.00  0.00    -0.003 A 
HETATM   10  C   UNL     1      -0.138   9.161  25.814  0.00  0.00     0.022 A 
HETATM   11  C   UNL     1       1.013   8.851  25.050  0.00  0.00     0.016 A 
HETATM   12  C   UNL     1       1.243   9.400  23.777  0.00  0.00     0.002 A 
HETATM   13  C   UNL     1       0.315  10.255  23.197  0.00  0.00     0.010 A 
ENDROOT
BRANCH   1  14
HETATM   14  N   UNL     1      -1.844  12.489  22.630  0.00  0.00    -0.344 N 
HETATM   15  C   UNL     1      -1.122  13.537  23.182  0.00  0.00     0.253 C 
HETATM   16  O   UNL     1      -0.822  13.583  24.370  0.00  0.00    -0.268 OA
HETATM   17  H   UNL     1      -2.207  12.535  21.689  0.00  0.00     0.163 HD
BRANCH  15  18
HETATM   18  C   UNL     1      -0.673  14.619  22.269  0.00  0.00     0.047 A 
HETATM   19  C   UNL     1       0.619  14.591  21.696  0.00  0.00     0.027 A 
HETATM   20  C   UNL     1       1.777  13.758  21.763  0.00  0.00     0.033 A 
HETATM   21  C   UNL     1       0.932  15.610  20.800  0.00  0.00     0.138 A 
HETATM   22  C   UNL     1       2.740  14.290  20.936  0.00  0.00     0.090 A 
HETATM   23  N   UNL     1       2.214  15.416  20.364  0.00  0.00    -0.350 N 
HETATM   24  H   UNL     1       2.673  16.023  19.695  0.00  0.00     0.166 HD
HETATM   25  N   UNL     1       0.147  16.623  20.402  0.00  0.00    -0.242 NA
HETATM   26  C   UNL     1      -1.087  16.583  20.953  0.00  0.00     0.120 A 
HETATM   27  C   UNL     1      -1.542  15.639  21.861  0.00  0.00     0.037 A 
ENDBRANCH  15  18
ENDBRANCH   1  14
BRANCH  10  28
HETATM   28  C   UNL     1      -0.271   8.563  27.156  0.00  0.00     0.140 A 
HETATM   29  N   UNL     1      -0.058   9.246  28.342  0.00  0.00    -0.338 N 
HETATM   30  H   UNL     1       0.211  10.216  28.417  0.00  0.00     0.167 HD
HETATM   31  C   UNL     1      -0.200   8.374  29.397  0.00  0.00     0.063 A 
HETATM   32  C   UNL     1      -0.516   7.167  28.788  0.00  0.00     0.088 A 
HETATM   33  C   UNL     1      -0.071   8.517  30.783  0.00  0.00     0.035 A 
HETATM   34  N   UNL     1      -0.627   7.325  27.433  0.00  0.00    -0.228 NA
HETATM   35  C   UNL     1      -0.661   6.011  29.561  0.00  0.00     0.076 A 
HETATM   36  C   UNL     1      -0.514   6.130  30.941  0.00  0.00     0.118 A 
HETATM   37  F   UNL     1      -0.639   5.036  31.705  0.00  0.00    -0.206 F 
HETATM   38  C   UNL     1      -0.239   7.354  31.548  0.00  0.00     0.044 A 
ENDBRANCH  10  28
TORSDOF 3
ENDMDL
MODEL 7
REMARK VINA RESULT:    -8.415      3.828      9.747
REMARK INTER + INTRA:         -11.049
REMARK INTER:                 -10.323
REMARK INTRA:                  -0.725
REMARK UNBOUND:                -1.158
REMARK  3 active torsions:
REMARK  status: ('A' for Active; 'I' for Inactive)
REMARK    1  A    between atoms: C_10  and  C_11 
REMARK       I    between atoms: C_11  and  N_13 
REMARK    2  A    between atoms: N_13  and  C_14 
REMARK    3  A    between atoms: C_23  and  C_27 
ROOT
HETATM    1  C   UNL     1      -1.333  10.713  23.684  0.00  0.00     0.153 C 
HETATM    2  C   UNL     1      -2.126  11.112  24.912  0.00  0.00    -0.020 A 
HETATM    3  C   UNL     1      -1.738  10.304  26.010  0.00  0.00    -0.016 A 
HETATM    4  C   UNL     1      -3.183  12.014  24.990  0.00  0.00     0.010 A 
HETATM    5  C   UNL     1      -3.902  12.091  26.183  0.00  0.00     0.001 A 
HETATM    6  C   UNL     1      -3.580  11.250  27.252  0.00  0.00     0.001 A 
HETATM    7  C   UNL     1      -2.506  10.356  27.160  0.00  0.00     0.013 A 
HETATM    8  C   UNL     1      -0.215   9.885  24.299  0.00  0.00    -0.019 A 
HETATM    9  C   UNL     1      -0.534   9.537  25.652  0.00  0.00    -0.003 A 
HETATM   10  C   UNL     1       0.277   8.614  26.341  0.00  0.00     0.022 A 
HETATM   11  C   UNL     1       1.393   8.093  25.642  0.00  0.00     0.016 A 
HETATM   12  C   UNL     1       1.709   8.486  24.329  0.00  0.00     0.002 A 
HETATM   13  C   UNL     1       0.904   9.387  23.647  0.00  0.00     0.010 A 
ENDROOT
BRANCH   1  14
HETATM   14  N   UNL     1      -0.953  11.802  22.813  0.00  0.00    -0.344 N 
HETATM   15  C   UNL     1      -0.110  12.798  23.281  0.00  0.00     0.253 C 
HETATM   16  O   UNL     1       0.180  12.920  24.467  0.00  0.00    -0.268 OA
HETATM   17  H   UNL     1      -1.296  11.803  21.863  0.00  0.00     0.163 HD
BRANCH  15  18
HETATM   18  C   UNL     1       0.482  13.724  22.283  0.00  0.00     0.047 A 
HETATM   19  C   UNL     1      -0.240  14.852  21.827  0.00  0.00     0.027 A 
HETATM   20  C   UNL     1      -1.533  15.421  22.032  0.00  0.00     0.033 A 
HETATM   21  C   UNL     1       0.417  15.703  20.942  0.00  0.00     0.138 A 
HETATM   22  C   UNL     1      -1.626  16.565  21.273  0.00  0.00     0.090 A 
HETATM   23  N   UNL     1      -0.437  16.719  20.614  0.00  0.00    -0.350 N 
HETATM   24  H   UNL     1      -0.189  17.476  19.987  0.00  0.00     0.166 HD
HETATM   25  N   UNL     1       1.668  15.589  20.469  0.00  0.00    -0.242 NA
HETATM   26  C   UNL     1       2.324  14.515  20.962  0.00  0.00     0.120 A 
HETATM   27  C   UNL     1       1.804  13.579  21.842  0.00  0.00     0.037 A 
ENDBRANCH  15  18
ENDBRANCH   1  14
BRANCH  10  28
HETATM   28  C   UNL     1       0.049   8.169  27.728  0.00  0.00     0.140 A 
HETATM   29  N   UNL     1       0.251   8.960  28.848  0.00  0.00    -0.338 N 
HETATM   30  H   UNL     1       0.576   9.916  28.836  0.00  0.00     0.167 HD
HETATM   31  C   UNL     1       0.011   8.213  29.978  0.00  0.00     0.063 A 
HETATM   32  C   UNL     1      -0.351   6.968  29.481  0.00  0.00     0.088 A 
HETATM   33  C   UNL     1       0.088   8.494  31.347  0.00  0.00     0.035 A 
HETATM   34  N   UNL     1      -0.393   6.989  28.114  0.00  0.00    -0.228 NA
HETATM   35  C   UNL     1      -0.600   5.910  30.361  0.00  0.00     0.076 A 
HETATM   36  C   UNL     1      -0.506   6.165  31.726  0.00  0.00     0.118 A 
HETATM   37  F   UNL     1      -0.730   5.167  32.592  0.00  0.00    -0.206 F 
HETATM   38  C   UNL     1      -0.184   7.429  32.218  0.00  0.00     0.044 A 
ENDBRANCH  10  28
TORSDOF 3
ENDMDL
MODEL 8
REMARK VINA RESULT:    -8.194      1.820      3.258
REMARK INTER + INTRA:         -10.789
REMARK INTER:                  -9.815
REMARK INTRA:                  -0.974
REMARK UNBOUND:                -1.158
REMARK  3 active torsions:
REMARK  status: ('A' for Active; 'I' for Inactive)
REMARK    1  A    between atoms: C_10  and  C_11 
REMARK       I    between atoms: C_11  and  N_13 
REMARK    2  A    between atoms: N_13  and  C_14 
REMARK    3  A    between atoms: C_23  and  C_27 
ROOT
HETATM    1  C   UNL     1      -0.661  10.213  26.301  0.00  0.00     0.153 C 
HETATM    2  C   UNL     1      -2.036  10.847  26.352  0.00  0.00    -0.020 A 
HETATM    3  C   UNL     1      -2.274  11.562  25.152  0.00  0.00    -0.016 A 
HETATM    4  C   UNL     1      -2.918  10.887  27.428  0.00  0.00     0.010 A 
HETATM    5  C   UNL     1      -4.054  11.690  27.325  0.00  0.00     0.001 A 
HETATM    6  C   UNL     1      -4.267  12.459  26.177  0.00  0.00     0.001 A 
HETATM    7  C   UNL     1      -3.375  12.398  25.099  0.00  0.00     0.013 A 
HETATM    8  C   UNL     1      -0.329  10.325  24.821  0.00  0.00    -0.019 A 
HETATM    9  C   UNL     1      -1.223  11.239  24.174  0.00  0.00    -0.003 A 
HETATM   10  C   UNL     1      -0.971  11.633  22.845  0.00  0.00     0.022 A 
HETATM   11  C   UNL     1       0.165  11.071  22.214  0.00  0.00     0.016 A 
HETATM   12  C   UNL     1       1.001  10.141  22.856  0.00  0.00     0.002 A 
HETATM   13  C   UNL     1       0.759   9.762  24.170  0.00  0.00     0.010 A 
ENDROOT
BRANCH   1  14
HETATM   14  N   UNL     1      -0.560   8.906  26.909  0.00  0.00    -0.344 N 
HETATM   15  C   UNL     1       0.615   8.528  27.542  0.00  0.00     0.253 C 
HETATM   16  O   UNL     1       1.657   9.168  27.445  0.00  0.00    -0.268 OA
HETATM   17  H   UNL     1      -1.364   8.296  26.879  0.00  0.00     0.163 HD
BRANCH  15  18
HETATM   18  C   UNL     1       0.578   7.313  28.395  0.00  0.00     0.047 A 
HETATM   19  C   UNL     1       1.526   6.278  28.218  0.00  0.00     0.027 A 
HETATM   20  C   UNL     1       2.617   5.995  27.342  0.00  0.00     0.033 A 
HETATM   21  C   UNL     1       1.458   5.206  29.105  0.00  0.00     0.138 A 
HETATM   22  C   UNL     1       3.158   4.782  27.705  0.00  0.00     0.090 A 
HETATM   23  N   UNL     1       2.441   4.314  28.772  0.00  0.00    -0.350 N 
HETATM   24  H   UNL     1       2.604   3.451  29.276  0.00  0.00     0.166 HD
HETATM   25  N   UNL     1       0.601   5.036  30.123  0.00  0.00    -0.242 NA
HETATM   26  C   UNL     1      -0.260   6.068  30.268  0.00  0.00     0.120 A 
HETATM   27  C   UNL     1      -0.318   7.196  29.465  0.00  0.00     0.037 A 
ENDBRANCH  15  18
ENDBRANCH   1  14
BRANCH  10  28
HETATM   28  C   UNL     1      -1.809  12.571  22.075  0.00  0.00     0.140 A 
HETATM   29  N   UNL     1      -2.863  12.192  21.261  0.00  0.00    -0.338 N 
HETATM   30  H   UNL     1      -3.169  11.243  21.105  0.00  0.00     0.167 HD
HETATM   31  C   UNL     1      -3.379  13.307  20.641  0.00  0.00     0.063 A 
HETATM   32  C   UNL     1      -2.602  14.348  21.132  0.00  0.00     0.088 A 
HETATM   33  C   UNL     1      -4.411  13.498  19.716  0.00  0.00     0.035 A 
HETATM   34  N   UNL     1      -1.705  13.885  22.056  0.00  0.00    -0.228 NA
HETATM   35  C   UNL     1      -2.794  15.648  20.656  0.00  0.00     0.076 A 
HETATM   36  C   UNL     1      -3.801  15.854  19.717  0.00  0.00     0.118 A 
HETATM   37  F   UNL     1      -4.002  17.089  19.237  0.00  0.00    -0.206 F 
HETATM   38  C   UNL     1      -4.606  14.811  19.262  0.00  0.00     0.044 A 
ENDBRANCH  10  28
TORSDOF 3
ENDMDL
MODEL 9
REMARK VINA RESULT:    -7.956      1.555      2.031
REMARK INTER + INTRA:         -10.509
REMARK INTER:                  -9.351
REMARK INTRA:                  -1.158
REMARK UNBOUND:                -1.158
REMARK  3 active torsions:
REMARK  status: ('A' for Active; 'I' for Inactive)
REMARK    1  A    between atoms: C_10  and  C_11 
REMARK       I    between atoms: C_11  and  N_13 
REMARK    2  A    between atoms: N_13  and  C_14 
REMARK    3  A    between atoms: C_23  and  C_27 
ROOT
HETATM    1  C   UNL     1      -1.250   9.918  26.641  0.00  0.00     0.153 C 
HETATM    2  C   UNL     1      -0.419   9.952  25.376  0.00  0.00    -0.020 A 
HETATM    3  C   UNL     1      -0.695  11.143  24.658  0.00  0.00    -0.016 A 
HETATM    4  C   UNL     1       0.394   8.947  24.862  0.00  0.00     0.010 A 
HETATM    5  C   UNL     1       0.922   9.110  23.580  0.00  0.00     0.001 A 
HETATM    6  C   UNL     1       0.600  10.245  22.829  0.00  0.00     0.001 A 
HETATM    7  C   UNL     1      -0.210  11.252  23.366  0.00  0.00     0.013 A 
HETATM    8  C   UNL     1      -1.712  11.364  26.741  0.00  0.00    -0.019 A 
HETATM    9  C   UNL     1      -1.493  12.048  25.500  0.00  0.00    -0.003 A 
HETATM   10  C   UNL     1      -2.024  13.340  25.316  0.00  0.00     0.022 A 
HETATM   11  C   UNL     1      -2.739  13.900  26.402  0.00  0.00     0.016 A 
HETATM   12  C   UNL     1      -2.902  13.226  27.626  0.00  0.00     0.002 A 
HETATM   13  C   UNL     1      -2.388  11.948  27.803  0.00  0.00     0.010 A 
ENDROOT
BRANCH   1  14
HETATM   14  N   UNL     1      -0.595   9.348  27.797  0.00  0.00    -0.344 N 
HETATM   15  C   UNL     1      -0.615   7.975  27.994  0.00  0.00     0.253 C 
HETATM   16  O   UNL     1      -1.333   7.222  27.345  0.00  0.00    -0.268 OA
HETATM   17  H   UNL     1      -0.112   9.966  28.432  0.00  0.00     0.163 HD
BRANCH  15  18
HETATM   18  C   UNL     1       0.304   7.413  29.016  0.00  0.00     0.047 A 
HETATM   19  C   UNL     1       1.559   6.879  28.641  0.00  0.00     0.027 A 
HETATM   20  C   UNL     1       2.284   6.656  27.432  0.00  0.00     0.033 A 
HETATM   21  C   UNL     1       2.385   6.435  29.671  0.00  0.00     0.138 A 
HETATM   22  C   UNL     1       3.494   6.085  27.754  0.00  0.00     0.090 A 
HETATM   23  N   UNL     1       3.538   5.952  29.115  0.00  0.00    -0.350 N 
HETATM   24  H   UNL     1       4.305   5.577  29.660  0.00  0.00     0.166 HD
HETATM   25  N   UNL     1       2.139   6.459  30.990  0.00  0.00    -0.242 NA
HETATM   26  C   UNL     1       0.942   7.010  31.295  0.00  0.00     0.120 A 
HETATM   27  C   UNL     1       0.014   7.490  30.384  0.00  0.00     0.037 A 
ENDBRANCH  15  18
ENDBRANCH   1  14
BRANCH  10  28
HETATM   28  C   UNL     1      -1.876  14.140  24.087  0.00  0.00     0.140 A 
HETATM   29  N   UNL     1      -0.816  14.996  23.833  0.00  0.00    -0.338 N 
HETATM   30  H   UNL     1      -0.040  15.165  24.455  0.00  0.00     0.167 HD
HETATM   31  C   UNL     1      -1.028  15.633  22.631  0.00  0.00     0.063 A 
HETATM   32  C   UNL     1      -2.236  15.110  22.188  0.00  0.00     0.088 A 
HETATM   33  C   UNL     1      -0.308  16.597  21.918  0.00  0.00     0.035 A 
HETATM   34  N   UNL     1      -2.692  14.152  23.052  0.00  0.00    -0.228 NA
HETATM   35  C   UNL     1      -2.815  15.591  21.010  0.00  0.00     0.076 A 
HETATM   36  C   UNL     1      -2.124  16.568  20.298  0.00  0.00     0.118 A 
HETATM   37  F   UNL     1      -2.660  17.053  19.170  0.00  0.00    -0.206 F 
HETATM   38  C   UNL     1      -0.891  17.056  20.728  0.00  0.00     0.044 A 
ENDBRANCH  10  28
TORSDOF 3
ENDMDL
