REMARK  3 active torsions:
REMARK  status: ('A' for Active; 'I' for Inactive)
REMARK    1  A    between atoms: C_10  and  C_11 
REMARK       I    between atoms: C_11  and  N_13 
REMARK    2  A    between atoms: N_13  and  C_14 
REMARK    3  A    between atoms: C_23  and  C_27 
ROOT
HETATM    1  C   UNL     1       2.667   5.024  -0.195  0.00  0.00     0.153 C 
HETATM    2  C   UNL     1       2.444   5.800   1.087  0.00  0.00    -0.020 A 
HETATM    3  C   UNL     1       2.343   7.183   0.793  0.00  0.00    -0.016 A 
HETATM    4  C   UNL     1       2.471   5.318   2.392  0.00  0.00     0.010 A 
HETATM    5  C   UNL     1       2.433   6.239   3.440  0.00  0.00     0.001 A 
HETATM    6  C   UNL     1       2.407   7.610   3.168  0.00  0.00     0.001 A 
HETATM    7  C   UNL     1       2.369   8.077   1.849  0.00  0.00     0.013 A 
HETATM    8  C   UNL     1       2.295   6.059  -1.246  0.00  0.00    -0.019 A 
HETATM    9  C   UNL     1       2.235   7.367  -0.663  0.00  0.00    -0.003 A 
HETATM   10  C   UNL     1       2.095   8.493  -1.498  0.00  0.00     0.022 A 
HETATM   11  C   UNL     1       2.001   8.252  -2.890  0.00  0.00     0.016 A 
HETATM   12  C   UNL     1       2.018   6.955  -3.433  0.00  0.00     0.002 A 
HETATM   13  C   UNL     1       2.167   5.846  -2.611  0.00  0.00     0.010 A 
ENDROOT
BRANCH   1  14
HETATM   14  N   UNL     1       2.007   3.740  -0.263  0.00  0.00    -0.344 N 
HETATM   15  C   UNL     1       2.605   2.692  -0.947  0.00  0.00     0.253 C 
HETATM   16  O   UNL     1       3.580   2.845  -1.675  0.00  0.00    -0.268 OA
HETATM   17  H   UNL     1       1.124   3.625   0.213  0.00  0.00     0.163 HD
BRANCH  15  18
HETATM   18  C   UNL     1       2.045   1.331  -0.747  0.00  0.00     0.047 A 
HETATM   19  C   UNL     1       2.128   0.359  -1.771  0.00  0.00     0.027 A 
HETATM   20  C   UNL     1       2.612   0.289  -3.112  0.00  0.00     0.033 A 
HETATM   21  C   UNL     1       1.637  -0.910  -1.474  0.00  0.00     0.138 A 
HETATM   22  C   UNL     1       2.394  -0.986  -3.583  0.00  0.00     0.090 A 
HETATM   23  N   UNL     1       1.797  -1.699  -2.580  0.00  0.00    -0.350 N 
HETATM   24  H   UNL     1       1.524  -2.674  -2.613  0.00  0.00     0.166 HD
HETATM   25  N   UNL     1       1.097  -1.332  -0.320  0.00  0.00    -0.242 NA
HETATM   26  C   UNL     1       1.073  -0.375   0.634  0.00  0.00     0.120 A 
HETATM   27  C   UNL     1       1.518   0.930   0.487  0.00  0.00     0.037 A 
ENDBRANCH  15  18
ENDBRANCH   1  14
BRANCH  10  28
HETATM   28  C   UNL     1       2.030   9.887  -1.022  0.00  0.00     0.140 A 
HETATM   29  N   UNL     1       2.545  10.974  -1.709  0.00  0.00    -0.338 N 
HETATM   30  H   UNL     1       3.018  10.931  -2.600  0.00  0.00     0.167 HD
HETATM   31  C   UNL     1       2.375  12.110  -0.951  0.00  0.00     0.063 A 
HETATM   32  C   UNL     1       1.732  11.652   0.191  0.00  0.00     0.088 A 
HETATM   33  C   UNL     1       2.724  13.451  -1.143  0.00  0.00     0.035 A 
HETATM   34  N   UNL     1       1.467  10.313   0.091  0.00  0.00    -0.228 NA
HETATM   35  C   UNL     1       1.460  12.534   1.241  0.00  0.00     0.076 A 
HETATM   36  C   UNL     1       1.821  13.869   1.078  0.00  0.00     0.118 A 
HETATM   37  F   UNL     1       1.580  14.735   2.072  0.00  0.00    -0.206 F 
HETATM   38  C   UNL     1       2.427  14.329  -0.090  0.00  0.00     0.044 A 
ENDBRANCH  10  28
TORSDOF 3
