MODEL 1
REMARK VINA RESULT:    -8.655      0.000      0.000
REMARK INTER + INTRA:         -12.292
REMARK INTER:                 -11.078
REMARK INTRA:                  -1.214
REMARK UNBOUND:                -1.361
REMARK  5 active torsions:
REMARK  status: ('A' for Active; 'I' for Inactive)
REMARK    1  A    between atoms: C_7  and  N_8 
REMARK       I    between atoms: N_8  and  C_10 
REMARK    2  A    between atoms: C_10  and  C_12 
REMARK    3  A    between atoms: C_14  and  O_15 
REMARK    4  A    between atoms: C_22  and  C_23 
REMARK    5  A    between atoms: C_23  and  C_24 
ROOT
HETATM    1  C   UNL     1       7.131  12.033  21.409  0.00  0.00     0.066 C 
HETATM    2  C   UNL     1       6.336  13.038  22.005  0.00  0.00     0.035 C 
HETATM    3  C   UNL     1       8.343  11.700  22.051  0.00  0.00     0.083 C 
HETATM    4  C   UNL     1       8.813  12.400  23.173  0.00  0.00     0.069 C 
HETATM    5  C   UNL     1       8.068  13.505  23.596  0.00  0.00     0.065 A 
HETATM    6  C   UNL     1       6.860  13.868  23.022  0.00  0.00     0.020 A 
HETATM    7  N   UNL     1       8.277  14.420  24.583  0.00  0.00    -0.277 N 
HETATM    8  H   UNL     1       9.049  14.442  25.247  0.00  0.00     0.189 HD
HETATM    9  N   UNL     1       7.373  15.407  24.626  0.00  0.00    -0.178 NA
HETATM   10  C   UNL     1       6.496  15.107  23.650  0.00  0.00     0.071 A 
ENDROOT
BRANCH   1  11
HETATM   11  C   UNL     1       6.764  11.318  20.117  0.00  0.00     0.260 C 
HETATM   12  N   UNL     1       5.667  10.406  20.040  0.00  0.00    -0.318 N 
HETATM   13  C   UNL     1       4.864  10.105  21.226  0.00  0.00     0.159 C 
HETATM   14  O   UNL     1       7.435  11.674  19.141  0.00  0.00    -0.267 OA
BRANCH  12  15
HETATM   15  C   UNL     1       5.380   9.604  18.851  0.00  0.00     0.037 C 
HETATM   16  C   UNL     1       4.607  10.130  17.796  0.00  0.00     0.030 C 
HETATM   17  C   UNL     1       4.121   9.346  16.745  0.00  0.00     0.009 C 
HETATM   18  C   UNL     1       4.426   7.995  16.683  0.00  0.00    -0.062 C 
HETATM   19  C   UNL     1       3.804   7.130  15.630  0.00  0.00     0.048 C 
HETATM   20  C   UNL     1       5.306   7.474  17.632  0.00  0.00     0.009 C 
HETATM   21  C   UNL     1       5.776   8.269  18.700  0.00  0.00     0.030 C 
ENDBRANCH  12  15
ENDBRANCH   1  11
BRANCH   3  22
HETATM   22  O   UNL     1       9.155  10.668  21.641  0.00  0.00    -0.360 OA
HETATM   23  H   UNL     1      10.032  11.049  21.403  0.00  0.00     0.217 HD
ENDBRANCH   3  22
BRANCH  10  24
HETATM   24  C   UNL     1       5.352  16.067  23.383  0.00  0.00     0.100 C 
BRANCH  24  25
HETATM   25  C   UNL     1       4.003  15.475  23.797  0.00  0.00    -0.052 C 
HETATM   26  C   UNL     1       3.637  15.282  25.136  0.00  0.00     0.007 C 
HETATM   27  C   UNL     1       2.382  14.773  25.478  0.00  0.00     0.001 C 
HETATM   28  C   UNL     1       1.509  14.330  24.492  0.00  0.00     0.007 C 
HETATM   29  C   UNL     1       1.896  14.356  23.150  0.00  0.00    -0.061 C 
HETATM   30  C   UNL     1       3.119  14.974  22.807  0.00  0.00     0.014 C 
HETATM   31  C   UNL     1       0.997  13.713  22.128  0.00  0.00     0.048 C 
ENDBRANCH  24  25
ENDBRANCH  10  24
TORSDOF 5
ENDMDL
MODEL 2
REMARK VINA RESULT:    -8.584      2.499      3.850
REMARK INTER + INTRA:         -12.203
REMARK INTER:                 -10.924
REMARK INTRA:                  -1.279
REMARK UNBOUND:                -1.361
REMARK  5 active torsions:
REMARK  status: ('A' for Active; 'I' for Inactive)
REMARK    1  A    between atoms: C_7  and  N_8 
REMARK       I    between atoms: N_8  and  C_10 
REMARK    2  A    between atoms: C_10  and  C_12 
REMARK    3  A    between atoms: C_14  and  O_15 
REMARK    4  A    between atoms: C_22  and  C_23 
REMARK    5  A    between atoms: C_23  and  C_24 
ROOT
HETATM    1  C   UNL     1       8.555  10.851  23.207  0.00  0.00     0.066 C 
HETATM    2  C   UNL     1       8.480  11.904  24.145  0.00  0.00     0.035 C 
HETATM    3  C   UNL     1       9.733  10.072  23.201  0.00  0.00     0.083 C 
HETATM    4  C   UNL     1      10.838  10.379  24.008  0.00  0.00     0.069 C 
HETATM    5  C   UNL     1      10.766  11.545  24.775  0.00  0.00     0.065 A 
HETATM    6  C   UNL     1       9.631  12.339  24.841  0.00  0.00     0.020 A 
HETATM    7  N   UNL     1      11.669  12.155  25.593  0.00  0.00    -0.277 N 
HETATM    8  H   UNL     1      12.606  11.829  25.825  0.00  0.00     0.189 HD
HETATM    9  N   UNL     1      11.263  13.329  26.092  0.00  0.00    -0.178 NA
HETATM   10  C   UNL     1      10.012  13.485  25.619  0.00  0.00     0.071 A 
ENDROOT
BRANCH   1  11
HETATM   11  C   UNL     1       7.459  10.533  22.201  0.00  0.00     0.260 C 
HETATM   12  N   UNL     1       7.358  11.214  20.949  0.00  0.00    -0.318 N 
HETATM   13  C   UNL     1       8.305  12.275  20.600  0.00  0.00     0.159 C 
HETATM   14  O   UNL     1       6.743   9.579  22.526  0.00  0.00    -0.267 OA
BRANCH  12  15
HETATM   15  C   UNL     1       6.239  11.025  20.027  0.00  0.00     0.037 C 
HETATM   16  C   UNL     1       6.276  10.015  19.044  0.00  0.00     0.030 C 
HETATM   17  C   UNL     1       5.343   9.928  18.007  0.00  0.00     0.009 C 
HETATM   18  C   UNL     1       4.297  10.835  17.931  0.00  0.00    -0.062 C 
HETATM   19  C   UNL     1       3.371  10.822  16.753  0.00  0.00     0.048 C 
HETATM   20  C   UNL     1       4.149  11.758  18.967  0.00  0.00     0.009 C 
HETATM   21  C   UNL     1       5.106  11.850  20.000  0.00  0.00     0.030 C 
ENDBRANCH  12  15
ENDBRANCH   1  11
BRANCH   3  22
HETATM   22  O   UNL     1       9.892   8.952  22.417  0.00  0.00    -0.360 OA
HETATM   23  H   UNL     1      10.649   9.114  21.809  0.00  0.00     0.217 HD
ENDBRANCH   3  22
BRANCH  10  24
HETATM   24  C   UNL     1       9.263  14.761  25.954  0.00  0.00     0.100 C 
BRANCH  24  25
HETATM   25  C   UNL     1       8.207  15.096  24.899  0.00  0.00    -0.052 C 
HETATM   26  C   UNL     1       8.529  15.368  23.562  0.00  0.00     0.007 C 
HETATM   27  C   UNL     1       7.535  15.635  22.618  0.00  0.00     0.001 C 
HETATM   28  C   UNL     1       6.207  15.757  23.008  0.00  0.00     0.007 C 
HETATM   29  C   UNL     1       5.860  15.650  24.357  0.00  0.00    -0.061 C 
HETATM   30  C   UNL     1       6.854  15.271  25.287  0.00  0.00     0.014 C 
HETATM   31  C   UNL     1       4.444  15.955  24.763  0.00  0.00     0.048 C 
ENDBRANCH  24  25
ENDBRANCH  10  24
TORSDOF 5
ENDMDL
MODEL 3
REMARK VINA RESULT:    -8.217      3.694      5.124
REMARK INTER + INTRA:         -11.740
REMARK INTER:                 -10.686
REMARK INTRA:                  -1.054
REMARK UNBOUND:                -1.361
REMARK  5 active torsions:
REMARK  status: ('A' for Active; 'I' for Inactive)
REMARK    1  A    between atoms: C_7  and  N_8 
REMARK       I    between atoms: N_8  and  C_10 
REMARK    2  A    between atoms: C_10  and  C_12 
REMARK    3  A    between atoms: C_14  and  O_15 
REMARK    4  A    between atoms: C_22  and  C_23 
REMARK    5  A    between atoms: C_23  and  C_24 
ROOT
HETATM    1  C   UNL     1       9.925  10.524  23.239  0.00  0.00     0.066 C 
HETATM    2  C   UNL     1       9.729  11.786  23.841  0.00  0.00     0.035 C 
HETATM    3  C   UNL     1      10.886  10.439  22.208  0.00  0.00     0.083 C 
HETATM    4  C   UNL     1      11.552  11.570  21.712  0.00  0.00     0.069 C 
HETATM    5  C   UNL     1      11.172  12.813  22.224  0.00  0.00     0.065 A 
HETATM    6  C   UNL     1      10.252  12.960  23.251  0.00  0.00     0.020 A 
HETATM    7  N   UNL     1      11.560  14.083  21.917  0.00  0.00    -0.277 N 
HETATM    8  H   UNL     1      12.262  14.362  21.234  0.00  0.00     0.189 HD
HETATM    9  N   UNL     1      10.892  15.042  22.571  0.00  0.00    -0.178 NA
HETATM   10  C   UNL     1      10.053  14.375  23.386  0.00  0.00     0.071 A 
ENDROOT
BRANCH   1  11
HETATM   11  C   UNL     1       9.148   9.273  23.621  0.00  0.00     0.260 C 
HETATM   12  N   UNL     1       7.814   9.039  23.165  0.00  0.00    -0.318 N 
HETATM   13  C   UNL     1       7.132  10.024  22.323  0.00  0.00     0.159 C 
HETATM   14  O   UNL     1       9.808   8.453  24.270  0.00  0.00    -0.267 OA
BRANCH  12  15
HETATM   15  C   UNL     1       6.999   7.917  23.627  0.00  0.00     0.037 C 
HETATM   16  C   UNL     1       5.803   8.140  24.342  0.00  0.00     0.030 C 
HETATM   17  C   UNL     1       5.103   7.118  24.990  0.00  0.00     0.009 C 
HETATM   18  C   UNL     1       5.553   5.809  24.918  0.00  0.00    -0.062 C 
HETATM   19  C   UNL     1       4.877   4.735  25.714  0.00  0.00     0.048 C 
HETATM   20  C   UNL     1       6.650   5.533  24.101  0.00  0.00     0.009 C 
HETATM   21  C   UNL     1       7.361   6.573  23.465  0.00  0.00     0.030 C 
ENDBRANCH  12  15
ENDBRANCH   1  11
BRANCH   3  22
HETATM   22  O   UNL     1      11.254   9.254  21.614  0.00  0.00    -0.360 OA
HETATM   23  H   UNL     1      11.331   9.412  20.645  0.00  0.00     0.217 HD
ENDBRANCH   3  22
BRANCH  10  24
HETATM   24  C   UNL     1       9.092  15.174  24.247  0.00  0.00     0.100 C 
BRANCH  24  25
HETATM   25  C   UNL     1       7.638  14.971  23.819  0.00  0.00    -0.052 C 
HETATM   26  C   UNL     1       7.281  14.357  22.610  0.00  0.00     0.007 C 
HETATM   27  C   UNL     1       5.942  14.155  22.268  0.00  0.00     0.001 C 
HETATM   28  C   UNL     1       4.926  14.668  23.065  0.00  0.00     0.007 C 
HETATM   29  C   UNL     1       5.238  15.424  24.198  0.00  0.00    -0.061 C 
HETATM   30  C   UNL     1       6.589  15.528  24.595  0.00  0.00     0.014 C 
HETATM   31  C   UNL     1       4.120  16.105  24.940  0.00  0.00     0.048 C 
ENDBRANCH  24  25
ENDBRANCH  10  24
TORSDOF 5
ENDMDL
MODEL 4
REMARK VINA RESULT:    -8.117      2.948      5.602
REMARK INTER + INTRA:         -11.613
REMARK INTER:                 -11.304
REMARK INTRA:                  -0.308
REMARK UNBOUND:                -1.361
REMARK  5 active torsions:
REMARK  status: ('A' for Active; 'I' for Inactive)
REMARK    1  A    between atoms: C_7  and  N_8 
REMARK       I    between atoms: N_8  and  C_10 
REMARK    2  A    between atoms: C_10  and  C_12 
REMARK    3  A    between atoms: C_14  and  O_15 
REMARK    4  A    between atoms: C_22  and  C_23 
REMARK    5  A    between atoms: C_23  and  C_24 
ROOT
HETATM    1  C   UNL     1       4.939  12.145  20.945  0.00  0.00     0.066 C 
HETATM    2  C   UNL     1       5.938  12.941  21.548  0.00  0.00     0.035 C 
HETATM    3  C   UNL     1       5.366  11.027  20.196  0.00  0.00     0.083 C 
HETATM    4  C   UNL     1       6.722  10.761  19.957  0.00  0.00     0.069 C 
HETATM    5  C   UNL     1       7.650  11.695  20.424  0.00  0.00     0.065 A 
HETATM    6  C   UNL     1       7.296  12.799  21.184  0.00  0.00     0.020 A 
HETATM    7  N   UNL     1       9.006  11.773  20.303  0.00  0.00    -0.277 N 
HETATM    8  H   UNL     1       9.620  11.103  19.844  0.00  0.00     0.189 HD
HETATM    9  N   UNL     1       9.547  12.885  20.816  0.00  0.00    -0.178 NA
HETATM   10  C   UNL     1       8.506  13.556  21.345  0.00  0.00     0.071 A 
ENDROOT
BRANCH   1  11
HETATM   11  C   UNL     1       3.449  12.440  21.039  0.00  0.00     0.260 C 
HETATM   12  N   UNL     1       2.817  12.765  22.277  0.00  0.00    -0.318 N 
HETATM   13  C   UNL     1       3.589  12.800  23.521  0.00  0.00     0.159 C 
HETATM   14  O   UNL     1       2.875  12.466  19.944  0.00  0.00    -0.267 OA
BRANCH  12  15
HETATM   15  C   UNL     1       1.369  12.916  22.418  0.00  0.00     0.037 C 
HETATM   16  C   UNL     1       0.732  12.654  23.649  0.00  0.00     0.030 C 
HETATM   17  C   UNL     1      -0.656  12.571  23.784  0.00  0.00     0.009 C 
HETATM   18  C   UNL     1      -1.479  12.790  22.689  0.00  0.00    -0.062 C 
HETATM   19  C   UNL     1      -2.957  12.578  22.803  0.00  0.00     0.048 C 
HETATM   20  C   UNL     1      -0.887  13.193  21.491  0.00  0.00     0.009 C 
HETATM   21  C   UNL     1       0.516  13.255  21.359  0.00  0.00     0.030 C 
ENDBRANCH  12  15
ENDBRANCH   1  11
BRANCH   3  22
HETATM   22  O   UNL     1       4.499  10.109  19.650  0.00  0.00    -0.360 OA
HETATM   23  H   UNL     1       4.473   9.326  20.247  0.00  0.00     0.217 HD
ENDBRANCH   3  22
BRANCH  10  24
HETATM   24  C   UNL     1       8.762  14.913  21.972  0.00  0.00     0.100 C 
BRANCH  24  25
HETATM   25  C   UNL     1       7.884  15.148  23.203  0.00  0.00    -0.052 C 
HETATM   26  C   UNL     1       8.244  14.713  24.486  0.00  0.00     0.007 C 
HETATM   27  C   UNL     1       7.436  14.977  25.594  0.00  0.00     0.001 C 
HETATM   28  C   UNL     1       6.191  15.573  25.431  0.00  0.00     0.007 C 
HETATM   29  C   UNL     1       5.723  15.880  24.151  0.00  0.00    -0.061 C 
HETATM   30  C   UNL     1       6.592  15.712  23.050  0.00  0.00     0.014 C 
HETATM   31  C   UNL     1       4.307  16.366  24.000  0.00  0.00     0.048 C 
ENDBRANCH  24  25
ENDBRANCH  10  24
TORSDOF 5
ENDMDL
MODEL 5
REMARK VINA RESULT:    -8.094      1.343      1.517
REMARK INTER + INTRA:         -11.584
REMARK INTER:                 -10.296
REMARK INTRA:                  -1.288
REMARK UNBOUND:                -1.361
REMARK  5 active torsions:
REMARK  status: ('A' for Active; 'I' for Inactive)
REMARK    1  A    between atoms: C_7  and  N_8 
REMARK       I    between atoms: N_8  and  C_10 
REMARK    2  A    between atoms: C_10  and  C_12 
REMARK    3  A    between atoms: C_14  and  O_15 
REMARK    4  A    between atoms: C_22  and  C_23 
REMARK    5  A    between atoms: C_23  and  C_24 
ROOT
HETATM    1  C   UNL     1       6.453  11.357  22.946  0.00  0.00     0.066 C 
HETATM    2  C   UNL     1       5.866  12.561  23.395  0.00  0.00     0.035 C 
HETATM    3  C   UNL     1       7.607  10.907  23.624  0.00  0.00     0.083 C 
HETATM    4  C   UNL     1       8.226  11.663  24.631  0.00  0.00     0.069 C 
HETATM    5  C   UNL     1       7.701  12.931  24.894  0.00  0.00     0.065 A 
HETATM    6  C   UNL     1       6.558  13.420  24.279  0.00  0.00     0.020 A 
HETATM    7  N   UNL     1       8.097  13.925  25.738  0.00  0.00    -0.277 N 
HETATM    8  H   UNL     1       8.881  13.902  26.388  0.00  0.00     0.189 HD
HETATM    9  N   UNL     1       7.383  15.053  25.643  0.00  0.00    -0.178 NA
HETATM   10  C   UNL     1       6.437  14.780  24.724  0.00  0.00     0.071 A 
ENDROOT
BRANCH   1  11
HETATM   11  C   UNL     1       5.928  10.544  21.773  0.00  0.00     0.260 C 
HETATM   12  N   UNL     1       6.376  10.766  20.435  0.00  0.00    -0.318 N 
HETATM   13  C   UNL     1       7.352  11.818  20.142  0.00  0.00     0.159 C 
HETATM   14  O   UNL     1       5.166   9.627  22.101  0.00  0.00    -0.267 OA
BRANCH  12  15
HETATM   15  C   UNL     1       5.789  10.096  19.276  0.00  0.00     0.037 C 
HETATM   16  C   UNL     1       4.955  10.799  18.381  0.00  0.00     0.030 C 
HETATM   17  C   UNL     1       4.199  10.166  17.390  0.00  0.00     0.009 C 
HETATM   18  C   UNL     1       4.276   8.792  17.223  0.00  0.00    -0.062 C 
HETATM   19  C   UNL     1       3.374   8.099  16.248  0.00  0.00     0.048 C 
HETATM   20  C   UNL     1       5.199   8.086  17.995  0.00  0.00     0.009 C 
HETATM   21  C   UNL     1       5.945   8.730  19.006  0.00  0.00     0.030 C 
ENDBRANCH  12  15
ENDBRANCH   1  11
BRANCH   3  22
HETATM   22  O   UNL     1       8.212   9.700  23.363  0.00  0.00    -0.360 OA
HETATM   23  H   UNL     1       9.163   9.873  23.171  0.00  0.00     0.217 HD
ENDBRANCH   3  22
BRANCH  10  24
HETATM   24  C   UNL     1       5.472  15.881  24.328  0.00  0.00     0.100 C 
BRANCH  24  25
HETATM   25  C   UNL     1       4.018  15.406  24.369  0.00  0.00    -0.052 C 
HETATM   26  C   UNL     1       3.339  15.139  25.566  0.00  0.00     0.007 C 
HETATM   27  C   UNL     1       2.000  14.743  25.567  0.00  0.00     0.001 C 
HETATM   28  C   UNL     1       1.341  14.485  24.371  0.00  0.00     0.007 C 
HETATM   29  C   UNL     1       2.026  14.586  23.157  0.00  0.00    -0.061 C 
HETATM   30  C   UNL     1       3.344  15.094  23.160  0.00  0.00     0.014 C 
HETATM   31  C   UNL     1       1.332  14.138  21.899  0.00  0.00     0.048 C 
ENDBRANCH  24  25
ENDBRANCH  10  24
TORSDOF 5
ENDMDL
MODEL 6
REMARK VINA RESULT:    -7.922      3.497      4.832
REMARK INTER + INTRA:         -11.366
REMARK INTER:                 -10.379
REMARK INTRA:                  -0.987
REMARK UNBOUND:                -1.361
REMARK  5 active torsions:
REMARK  status: ('A' for Active; 'I' for Inactive)
REMARK    1  A    between atoms: C_7  and  N_8 
REMARK       I    between atoms: N_8  and  C_10 
REMARK    2  A    between atoms: C_10  and  C_12 
REMARK    3  A    between atoms: C_14  and  O_15 
REMARK    4  A    between atoms: C_22  and  C_23 
REMARK    5  A    between atoms: C_23  and  C_24 
ROOT
HETATM    1  C   UNL     1       9.838  10.851  23.240  0.00  0.00     0.066 C 
HETATM    2  C   UNL     1       9.437  12.004  23.950  0.00  0.00     0.035 C 
HETATM    3  C   UNL     1      10.718  11.034  22.151  0.00  0.00     0.083 C 
HETATM    4  C   UNL     1      11.105  12.307  21.708  0.00  0.00     0.069 C 
HETATM    5  C   UNL     1      10.522  13.410  22.339  0.00  0.00     0.065 A 
HETATM    6  C   UNL     1       9.669  13.296  23.426  0.00  0.00     0.020 A 
HETATM    7  N   UNL     1      10.623  14.749  22.110  0.00  0.00    -0.277 N 
HETATM    8  H   UNL     1      11.203  15.211  21.412  0.00  0.00     0.189 HD
HETATM    9  N   UNL     1       9.826  15.506  22.876  0.00  0.00    -0.178 NA
HETATM   10  C   UNL     1       9.200  14.629  23.684  0.00  0.00     0.071 A 
ENDROOT
BRANCH   1  11
HETATM   11  C   UNL     1       9.358   9.445  23.567  0.00  0.00     0.260 C 
HETATM   12  N   UNL     1       8.133   8.923  23.051  0.00  0.00    -0.318 N 
HETATM   13  C   UNL     1       7.272   9.746  22.199  0.00  0.00     0.159 C 
HETATM   14  O   UNL     1      10.166   8.782  24.228  0.00  0.00    -0.267 OA
BRANCH  12  15
HETATM   15  C   UNL     1       7.582   7.630  23.459  0.00  0.00     0.037 C 
HETATM   16  C   UNL     1       6.308   7.545  24.057  0.00  0.00     0.030 C 
HETATM   17  C   UNL     1       5.828   6.378  24.659  0.00  0.00     0.009 C 
HETATM   18  C   UNL     1       6.593   5.222  24.653  0.00  0.00    -0.062 C 
HETATM   19  C   UNL     1       6.136   4.011  25.405  0.00  0.00     0.048 C 
HETATM   20  C   UNL     1       7.795   5.233  23.944  0.00  0.00     0.009 C 
HETATM   21  C   UNL     1       8.281   6.420  23.356  0.00  0.00     0.030 C 
ENDBRANCH  12  15
ENDBRANCH   1  11
BRANCH   3  22
HETATM   22  O   UNL     1      11.271   9.991  21.445  0.00  0.00    -0.360 OA
HETATM   23  H   UNL     1      12.186  10.251  21.190  0.00  0.00     0.217 HD
ENDBRANCH   3  22
BRANCH  10  24
HETATM   24  C   UNL     1       8.165  15.154  24.661  0.00  0.00     0.100 C 
BRANCH  24  25
HETATM   25  C   UNL     1       6.746  15.048  24.100  0.00  0.00    -0.052 C 
HETATM   26  C   UNL     1       5.690  15.856  24.546  0.00  0.00     0.007 C 
HETATM   27  C   UNL     1       4.415  15.757  23.985  0.00  0.00     0.001 C 
HETATM   28  C   UNL     1       4.131  14.767  23.051  0.00  0.00     0.007 C 
HETATM   29  C   UNL     1       5.112  13.839  22.693  0.00  0.00    -0.061 C 
HETATM   30  C   UNL     1       6.426  14.015  23.181  0.00  0.00     0.014 C 
HETATM   31  C   UNL     1       4.723  12.683  21.812  0.00  0.00     0.048 C 
ENDBRANCH  24  25
ENDBRANCH  10  24
TORSDOF 5
ENDMDL
MODEL 7
REMARK VINA RESULT:    -7.806      1.762      2.715
REMARK INTER + INTRA:         -11.220
REMARK INTER:                 -10.424
REMARK INTRA:                  -0.796
REMARK UNBOUND:                -1.361
REMARK  5 active torsions:
REMARK  status: ('A' for Active; 'I' for Inactive)
REMARK    1  A    between atoms: C_7  and  N_8 
REMARK       I    between atoms: N_8  and  C_10 
REMARK    2  A    between atoms: C_10  and  C_12 
REMARK    3  A    between atoms: C_14  and  O_15 
REMARK    4  A    between atoms: C_22  and  C_23 
REMARK    5  A    between atoms: C_23  and  C_24 
ROOT
HETATM    1  C   UNL     1       8.869  12.223  22.039  0.00  0.00     0.066 C 
HETATM    2  C   UNL     1       8.381  12.794  23.235  0.00  0.00     0.035 C 
HETATM    3  C   UNL     1      10.267  12.061  21.921  0.00  0.00     0.083 C 
HETATM    4  C   UNL     1      11.159  12.540  22.891  0.00  0.00     0.069 C 
HETATM    5  C   UNL     1      10.619  13.262  23.958  0.00  0.00     0.065 A 
HETATM    6  C   UNL     1       9.256  13.435  24.142  0.00  0.00     0.020 A 
HETATM    7  N   UNL     1      11.199  13.908  25.008  0.00  0.00    -0.277 N 
HETATM    8  H   UNL     1      12.193  13.956  25.227  0.00  0.00     0.189 HD
HETATM    9  N   UNL     1      10.343  14.579  25.790  0.00  0.00    -0.178 NA
HETATM   10  C   UNL     1       9.131  14.328  25.260  0.00  0.00     0.071 A 
ENDROOT
BRANCH   1  11
HETATM   11  C   UNL     1       7.981  11.801  20.878  0.00  0.00     0.260 C 
HETATM   12  N   UNL     1       6.722  11.157  21.080  0.00  0.00    -0.318 N 
HETATM   13  C   UNL     1       6.250  10.854  22.433  0.00  0.00     0.159 C 
HETATM   14  O   UNL     1       8.405  12.154  19.771  0.00  0.00    -0.267 OA
BRANCH  12  15
HETATM   15  C   UNL     1       5.916  10.620  19.985  0.00  0.00     0.037 C 
HETATM   16  C   UNL     1       5.995   9.257  19.632  0.00  0.00     0.030 C 
HETATM   17  C   UNL     1       5.420   8.738  18.468  0.00  0.00     0.009 C 
HETATM   18  C   UNL     1       4.698   9.562  17.618  0.00  0.00    -0.062 C 
HETATM   19  C   UNL     1       4.189   9.037  16.311  0.00  0.00     0.048 C 
HETATM   20  C   UNL     1       4.479  10.883  18.012  0.00  0.00     0.009 C 
HETATM   21  C   UNL     1       5.079  11.403  19.179  0.00  0.00     0.030 C 
ENDBRANCH  12  15
ENDBRANCH   1  11
BRANCH   3  22
HETATM   22  O   UNL     1      10.865  11.421  20.861  0.00  0.00    -0.360 OA
HETATM   23  H   UNL     1      11.828  11.625  20.888  0.00  0.00     0.217 HD
ENDBRANCH   3  22
BRANCH  10  24
HETATM   24  C   UNL     1       7.916  14.991  25.881  0.00  0.00     0.100 C 
BRANCH  24  25
HETATM   25  C   UNL     1       6.692  14.909  24.968  0.00  0.00    -0.052 C 
HETATM   26  C   UNL     1       6.373  15.903  24.033  0.00  0.00     0.007 C 
HETATM   27  C   UNL     1       5.267  15.777  23.189  0.00  0.00     0.001 C 
HETATM   28  C   UNL     1       4.383  14.715  23.341  0.00  0.00     0.007 C 
HETATM   29  C   UNL     1       4.575  13.784  24.365  0.00  0.00    -0.061 C 
HETATM   30  C   UNL     1       5.754  13.858  25.139  0.00  0.00     0.014 C 
HETATM   31  C   UNL     1       3.510  12.749  24.606  0.00  0.00     0.048 C 
ENDBRANCH  24  25
ENDBRANCH  10  24
TORSDOF 5
ENDMDL
MODEL 8
REMARK VINA RESULT:    -7.784      2.873      6.184
REMARK INTER + INTRA:         -11.192
REMARK INTER:                  -9.832
REMARK INTRA:                  -1.361
REMARK UNBOUND:                -1.361
REMARK  5 active torsions:
REMARK  status: ('A' for Active; 'I' for Inactive)
REMARK    1  A    between atoms: C_7  and  N_8 
REMARK       I    between atoms: N_8  and  C_10 
REMARK    2  A    between atoms: C_10  and  C_12 
REMARK    3  A    between atoms: C_14  and  O_15 
REMARK    4  A    between atoms: C_22  and  C_23 
REMARK    5  A    between atoms: C_23  and  C_24 
ROOT
HETATM    1  C   UNL     1       4.605  14.793  23.328  0.00  0.00     0.066 C 
HETATM    2  C   UNL     1       5.611  14.354  22.440  0.00  0.00     0.035 C 
HETATM    3  C   UNL     1       5.023  15.451  24.506  0.00  0.00     0.083 C 
HETATM    4  C   UNL     1       6.376  15.578  24.852  0.00  0.00     0.069 C 
HETATM    5  C   UNL     1       7.311  14.954  24.020  0.00  0.00     0.065 A 
HETATM    6  C   UNL     1       6.966  14.313  22.841  0.00  0.00     0.020 A 
HETATM    7  N   UNL     1       8.665  14.827  24.106  0.00  0.00    -0.277 N 
HETATM    8  H   UNL     1       9.274  15.215  24.824  0.00  0.00     0.189 HD
HETATM    9  N   UNL     1       9.213  14.066  23.150  0.00  0.00    -0.178 NA
HETATM   10  C   UNL     1       8.179  13.708  22.366  0.00  0.00     0.071 A 
ENDROOT
BRANCH   1  11
HETATM   11  C   UNL     1       3.117  14.576  23.098  0.00  0.00     0.260 C 
HETATM   12  N   UNL     1       2.550  13.270  22.985  0.00  0.00    -0.318 N 
HETATM   13  C   UNL     1       3.399  12.080  23.062  0.00  0.00     0.159 C 
HETATM   14  O   UNL     1       2.451  15.617  23.118  0.00  0.00    -0.267 OA
BRANCH  12  15
HETATM   15  C   UNL     1       1.151  13.036  22.628  0.00  0.00     0.037 C 
HETATM   16  C   UNL     1       0.703  13.227  21.304  0.00  0.00     0.030 C 
HETATM   17  C   UNL     1      -0.650  13.230  20.953  0.00  0.00     0.009 C 
HETATM   18  C   UNL     1      -1.623  13.001  21.914  0.00  0.00    -0.062 C 
HETATM   19  C   UNL     1      -3.073  13.129  21.565  0.00  0.00     0.048 C 
HETATM   20  C   UNL     1      -1.207  12.666  23.204  0.00  0.00     0.009 C 
HETATM   21  C   UNL     1       0.161  12.683  23.554  0.00  0.00     0.030 C 
ENDBRANCH  12  15
ENDBRANCH   1  11
BRANCH   3  22
HETATM   22  O   UNL     1       4.149  16.025  25.399  0.00  0.00    -0.360 OA
HETATM   23  H   UNL     1       4.134  16.995  25.228  0.00  0.00     0.217 HD
ENDBRANCH   3  22
BRANCH  10  24
HETATM   24  C   UNL     1       8.443  12.780  21.195  0.00  0.00     0.100 C 
BRANCH  24  25
HETATM   25  C   UNL     1       7.320  11.759  21.012  0.00  0.00    -0.052 C 
HETATM   26  C   UNL     1       7.096  10.707  21.911  0.00  0.00     0.007 C 
HETATM   27  C   UNL     1       6.037   9.814  21.732  0.00  0.00     0.001 C 
HETATM   28  C   UNL     1       5.250   9.874  20.587  0.00  0.00     0.007 C 
HETATM   29  C   UNL     1       5.538  10.807  19.588  0.00  0.00    -0.061 C 
HETATM   30  C   UNL     1       6.537  11.776  19.829  0.00  0.00     0.014 C 
HETATM   31  C   UNL     1       4.775  10.733  18.293  0.00  0.00     0.048 C 
ENDBRANCH  24  25
ENDBRANCH  10  24
TORSDOF 5
ENDMDL
MODEL 9
REMARK VINA RESULT:    -7.719      2.191      4.887
REMARK INTER + INTRA:         -11.110
REMARK INTER:                  -9.808
REMARK INTRA:                  -1.303
REMARK UNBOUND:                -1.361
REMARK  5 active torsions:
REMARK  status: ('A' for Active; 'I' for Inactive)
REMARK    1  A    between atoms: C_7  and  N_8 
REMARK       I    between atoms: N_8  and  C_10 
REMARK    2  A    between atoms: C_10  and  C_12 
REMARK    3  A    between atoms: C_14  and  O_15 
REMARK    4  A    between atoms: C_22  and  C_23 
REMARK    5  A    between atoms: C_23  and  C_24 
ROOT
HETATM    1  C   UNL     1       4.980  12.956  22.308  0.00  0.00     0.066 C 
HETATM    2  C   UNL     1       6.137  13.763  22.223  0.00  0.00     0.035 C 
HETATM    3  C   UNL     1       4.227  13.027  23.500  0.00  0.00     0.083 C 
HETATM    4  C   UNL     1       4.650  13.775  24.609  0.00  0.00     0.069 C 
HETATM    5  C   UNL     1       5.898  14.397  24.523  0.00  0.00     0.065 A 
HETATM    6  C   UNL     1       6.674  14.384  23.374  0.00  0.00     0.020 A 
HETATM    7  N   UNL     1       6.618  15.123  25.424  0.00  0.00    -0.277 N 
HETATM    8  H   UNL     1       6.339  15.379  26.370  0.00  0.00     0.189 HD
HETATM    9  N   UNL     1       7.836  15.484  25.001  0.00  0.00    -0.178 NA
HETATM   10  C   UNL     1       7.911  15.014  23.741  0.00  0.00     0.071 A 
ENDROOT
BRANCH   1  11
HETATM   11  C   UNL     1       4.523  12.012  21.206  0.00  0.00     0.260 C 
HETATM   12  N   UNL     1       5.357  10.962  20.714  0.00  0.00    -0.318 N 
HETATM   13  C   UNL     1       6.709  10.774  21.243  0.00  0.00     0.159 C 
HETATM   14  O   UNL     1       3.348  12.179  20.859  0.00  0.00    -0.267 OA
BRANCH  12  15
HETATM   15  C   UNL     1       4.997  10.130  19.566  0.00  0.00     0.037 C 
HETATM   16  C   UNL     1       4.820  10.701  18.289  0.00  0.00     0.030 C 
HETATM   17  C   UNL     1       4.270  10.000  17.212  0.00  0.00     0.009 C 
HETATM   18  C   UNL     1       3.906   8.670  17.357  0.00  0.00    -0.062 C 
HETATM   19  C   UNL     1       3.202   7.954  16.245  0.00  0.00     0.048 C 
HETATM   20  C   UNL     1       4.202   8.035  18.564  0.00  0.00     0.009 C 
HETATM   21  C   UNL     1       4.740   8.756  19.652  0.00  0.00     0.030 C 
ENDBRANCH  12  15
ENDBRANCH   1  11
BRANCH   3  22
HETATM   22  O   UNL     1       3.025  12.381  23.672  0.00  0.00    -0.360 OA
HETATM   23  H   UNL     1       2.483  12.911  24.301  0.00  0.00     0.217 HD
ENDBRANCH   3  22
BRANCH  10  24
HETATM   24  C   UNL     1       9.204  15.204  22.971  0.00  0.00     0.100 C 
BRANCH  24  25
HETATM   25  C   UNL     1       9.684  13.901  22.331  0.00  0.00    -0.052 C 
HETATM   26  C   UNL     1       9.600  13.656  20.953  0.00  0.00     0.007 C 
HETATM   27  C   UNL     1      10.082  12.468  20.397  0.00  0.00     0.001 C 
HETATM   28  C   UNL     1      10.548  11.446  21.215  0.00  0.00     0.007 C 
HETATM   29  C   UNL     1      10.502  11.585  22.605  0.00  0.00    -0.061 C 
HETATM   30  C   UNL     1      10.118  12.829  23.152  0.00  0.00     0.014 C 
HETATM   31  C   UNL     1      10.855  10.397  23.459  0.00  0.00     0.048 C 
ENDBRANCH  24  25
ENDBRANCH  10  24
TORSDOF 5
ENDMDL
