MODEL 1
REMARK VINA RESULT:    -7.496      0.000      0.000
REMARK INTER + INTRA:          -9.795
REMARK INTER:                  -8.754
REMARK INTRA:                  -1.042
REMARK UNBOUND:                -0.985
REMARK  4 active torsions:
REMARK  status: ('A' for Active; 'I' for Inactive)
REMARK    1  A    between atoms: O_1  and  C_2 
REMARK    2  A    between atoms: C_4  and  O_5 
REMARK    3  A    between atoms: C_6  and  C_10 
REMARK    4  A    between atoms: N_16  and  C_17 
ROOT
HETATM    1  C   UNL     1       7.842  12.920  24.450  0.00  0.00     0.172 A 
HETATM    2  N   UNL     1       8.905  12.674  25.174  0.00  0.00    -0.151 NA
HETATM    3  N   UNL     1       8.793  13.482  26.261  0.00  0.00    -0.226 N 
HETATM    4  H   UNL     1       9.387  13.389  27.074  0.00  0.00     0.194 HD
HETATM    5  C   UNL     1       7.619  14.213  26.211  0.00  0.00     0.349 A 
HETATM    6  O   UNL     1       7.200  14.923  27.112  0.00  0.00    -0.245 OA
HETATM    7  N   UNL     1       7.029  13.884  25.001  0.00  0.00    -0.241 N 
ENDROOT
BRANCH   1   8
HETATM    8  C   UNL     1       7.611  12.245  23.138  0.00  0.00     0.047 A 
HETATM    9  C   UNL     1       6.765  11.122  23.044  0.00  0.00     0.082 A 
HETATM   10  C   UNL     1       6.475  10.532  21.809  0.00  0.00     0.075 A 
HETATM   11  C   UNL     1       7.024  11.067  20.648  0.00  0.00     0.085 A 
HETATM   12  C   UNL     1       7.919  12.133  20.728  0.00  0.00     0.045 A 
HETATM   13  C   UNL     1       8.245  12.690  21.970  0.00  0.00     0.040 A 
HETATM   14 BR   UNL     1       8.683  12.902  19.170  0.00  0.00    -0.048 Br
BRANCH   9  15
HETATM   15  O   UNL     1       6.173  10.589  24.156  0.00  0.00    -0.360 OA
HETATM   16  H   UNL     1       5.985  11.285  24.806  0.00  0.00     0.217 HD
ENDBRANCH   9  15
BRANCH  11  17
HETATM   17  O   UNL     1       6.680  10.547  19.432  0.00  0.00    -0.359 OA
HETATM   18  H   UNL     1       7.024   9.642  19.354  0.00  0.00     0.217 HD
ENDBRANCH  11  17
ENDBRANCH   1   8
BRANCH   7  19
HETATM   19  C   UNL     1       5.728  14.333  24.696  0.00  0.00     0.084 A 
HETATM   20  C   UNL     1       4.578  13.707  25.182  0.00  0.00     0.143 A 
HETATM   21  F   UNL     1       4.669  12.627  25.972  0.00  0.00    -0.204 F 
HETATM   22  C   UNL     1       3.310  14.223  24.912  0.00  0.00     0.044 A 
HETATM   23  C   UNL     1       3.181  15.380  24.139  0.00  0.00     0.003 A 
HETATM   24  C   UNL     1       4.314  16.010  23.641  0.00  0.00     0.002 A 
HETATM   25  C   UNL     1       5.580  15.497  23.923  0.00  0.00     0.033 A 
ENDBRANCH   7  19
TORSDOF 4
ENDMDL
MODEL 2
REMARK VINA RESULT:    -7.279      2.018      2.471
REMARK INTER + INTRA:          -9.540
REMARK INTER:                  -8.767
REMARK INTRA:                  -0.773
REMARK UNBOUND:                -0.985
REMARK  4 active torsions:
REMARK  status: ('A' for Active; 'I' for Inactive)
REMARK    1  A    between atoms: O_1  and  C_2 
REMARK    2  A    between atoms: C_4  and  O_5 
REMARK    3  A    between atoms: C_6  and  C_10 
REMARK    4  A    between atoms: N_16  and  C_17 
ROOT
HETATM    1  C   UNL     1       8.220  13.024  24.331  0.00  0.00     0.172 A 
HETATM    2  N   UNL     1       9.274  12.572  24.964  0.00  0.00    -0.151 NA
HETATM    3  N   UNL     1       9.392  13.356  26.068  0.00  0.00    -0.226 N 
HETATM    4  H   UNL     1      10.019  13.135  26.829  0.00  0.00     0.194 HD
HETATM    5  C   UNL     1       8.367  14.285  26.122  0.00  0.00     0.349 A 
HETATM    6  O   UNL     1       8.153  15.033  27.063  0.00  0.00    -0.245 OA
HETATM    7  N   UNL     1       7.638  14.101  24.958  0.00  0.00    -0.241 N 
ENDROOT
BRANCH   1   8
HETATM    8  C   UNL     1       7.772  12.438  23.031  0.00  0.00     0.047 A 
HETATM    9  C   UNL     1       8.477  12.702  21.840  0.00  0.00     0.082 A 
HETATM   10  C   UNL     1       8.117  12.093  20.632  0.00  0.00     0.075 A 
HETATM   11  C   UNL     1       7.049  11.203  20.606  0.00  0.00     0.085 A 
HETATM   12  C   UNL     1       6.295  10.984  21.758  0.00  0.00     0.045 A 
HETATM   13  C   UNL     1       6.628  11.632  22.953  0.00  0.00     0.040 A 
HETATM   14 BR   UNL     1       4.836   9.771  21.770  0.00  0.00    -0.048 Br
BRANCH   9  15
HETATM   15  O   UNL     1       9.558  13.540  21.831  0.00  0.00    -0.360 OA
HETATM   16  H   UNL     1       9.306  14.422  22.148  0.00  0.00     0.217 HD
ENDBRANCH   9  15
BRANCH  11  17
HETATM   17  O   UNL     1       6.743  10.544  19.448  0.00  0.00    -0.359 OA
HETATM   18  H   UNL     1       5.886  10.097  19.542  0.00  0.00     0.217 HD
ENDBRANCH  11  17
ENDBRANCH   1   8
BRANCH   7  19
HETATM   19  C   UNL     1       6.419  14.783  24.764  0.00  0.00     0.084 A 
HETATM   20  C   UNL     1       6.116  15.469  23.587  0.00  0.00     0.143 A 
HETATM   21  F   UNL     1       6.993  15.512  22.574  0.00  0.00    -0.204 F 
HETATM   22  C   UNL     1       4.870  16.073  23.408  0.00  0.00     0.044 A 
HETATM   23  C   UNL     1       3.910  16.001  24.422  0.00  0.00     0.003 A 
HETATM   24  C   UNL     1       4.200  15.330  25.603  0.00  0.00     0.002 A 
HETATM   25  C   UNL     1       5.442  14.716  25.772  0.00  0.00     0.033 A 
ENDBRANCH   7  19
TORSDOF 4
ENDMDL
MODEL 3
REMARK VINA RESULT:    -7.099      1.678      1.963
REMARK INTER + INTRA:          -9.329
REMARK INTER:                  -8.199
REMARK INTRA:                  -1.130
REMARK UNBOUND:                -0.985
REMARK  4 active torsions:
REMARK  status: ('A' for Active; 'I' for Inactive)
REMARK    1  A    between atoms: O_1  and  C_2 
REMARK    2  A    between atoms: C_4  and  O_5 
REMARK    3  A    between atoms: C_6  and  C_10 
REMARK    4  A    between atoms: N_16  and  C_17 
ROOT
HETATM    1  C   UNL     1       7.844  12.919  24.007  0.00  0.00     0.172 A 
HETATM    2  N   UNL     1       8.988  12.646  24.583  0.00  0.00    -0.151 NA
HETATM    3  N   UNL     1       9.034  13.442  25.683  0.00  0.00    -0.226 N 
HETATM    4  H   UNL     1       9.727  13.329  26.409  0.00  0.00     0.194 HD
HETATM    5  C   UNL     1       7.877  14.193  25.794  0.00  0.00     0.349 A 
HETATM    6  O   UNL     1       7.593  14.900  26.749  0.00  0.00    -0.245 OA
HETATM    7  N   UNL     1       7.128  13.890  24.669  0.00  0.00    -0.241 N 
ENDROOT
BRANCH   1   8
HETATM    8  C   UNL     1       7.431  12.264  22.729  0.00  0.00     0.047 A 
HETATM    9  C   UNL     1       8.087  12.564  21.520  0.00  0.00     0.082 A 
HETATM   10  C   UNL     1       7.765  11.897  20.332  0.00  0.00     0.075 A 
HETATM   11  C   UNL     1       6.784  10.911  20.346  0.00  0.00     0.085 A 
HETATM   12  C   UNL     1       6.073  10.650  21.517  0.00  0.00     0.045 A 
HETATM   13  C   UNL     1       6.365  11.354  22.690  0.00  0.00     0.040 A 
HETATM   14 BR   UNL     1       4.734   9.307  21.583  0.00  0.00    -0.048 Br
BRANCH   9  15
HETATM   15  O   UNL     1       9.086  13.498  21.471  0.00  0.00    -0.360 OA
HETATM   16  H   UNL     1       8.738  14.350  21.161  0.00  0.00     0.217 HD
ENDBRANCH   9  15
BRANCH  11  17
HETATM   17  O   UNL     1       6.521  10.199  19.209  0.00  0.00    -0.359 OA
HETATM   18  H   UNL     1       5.976  10.732  18.607  0.00  0.00     0.217 HD
ENDBRANCH  11  17
ENDBRANCH   1   8
BRANCH   7  19
HETATM   19  C   UNL     1       5.807  14.365  24.541  0.00  0.00     0.084 A 
HETATM   20  C   UNL     1       4.715  13.737  25.144  0.00  0.00     0.143 A 
HETATM   21  F   UNL     1       4.884  12.629  25.881  0.00  0.00    -0.204 F 
HETATM   22  C   UNL     1       3.433  14.278  25.050  0.00  0.00     0.044 A 
HETATM   23  C   UNL     1       3.228  15.462  24.336  0.00  0.00     0.003 A 
HETATM   24  C   UNL     1       4.301  16.095  23.723  0.00  0.00     0.002 A 
HETATM   25  C   UNL     1       5.585  15.557  23.831  0.00  0.00     0.033 A 
ENDBRANCH   7  19
TORSDOF 4
ENDMDL
MODEL 4
REMARK VINA RESULT:    -7.064      2.395      2.757
REMARK INTER + INTRA:          -9.287
REMARK INTER:                  -8.287
REMARK INTRA:                  -1.001
REMARK UNBOUND:                -0.985
REMARK  4 active torsions:
REMARK  status: ('A' for Active; 'I' for Inactive)
REMARK    1  A    between atoms: O_1  and  C_2 
REMARK    2  A    between atoms: C_4  and  O_5 
REMARK    3  A    between atoms: C_6  and  C_10 
REMARK    4  A    between atoms: N_16  and  C_17 
ROOT
HETATM    1  C   UNL     1       7.678  12.684  23.570  0.00  0.00     0.172 A 
HETATM    2  N   UNL     1       8.936  12.330  23.656  0.00  0.00    -0.151 NA
HETATM    3  N   UNL     1       9.558  13.365  24.279  0.00  0.00    -0.226 N 
HETATM    4  H   UNL     1      10.505  13.302  24.627  0.00  0.00     0.194 HD
HETATM    5  C   UNL     1       8.651  14.358  24.607  0.00  0.00     0.349 A 
HETATM    6  O   UNL     1       8.909  15.343  25.280  0.00  0.00    -0.245 OA
HETATM    7  N   UNL     1       7.436  13.935  24.093  0.00  0.00    -0.241 N 
ENDROOT
BRANCH   1   8
HETATM    8  C   UNL     1       6.659  11.816  22.908  0.00  0.00     0.047 A 
HETATM    9  C   UNL     1       6.677  11.617  21.514  0.00  0.00     0.082 A 
HETATM   10  C   UNL     1       5.780  10.741  20.892  0.00  0.00     0.075 A 
HETATM   11  C   UNL     1       4.858  10.044  21.665  0.00  0.00     0.085 A 
HETATM   12  C   UNL     1       4.777  10.280  23.037  0.00  0.00     0.045 A 
HETATM   13  C   UNL     1       5.644  11.193  23.648  0.00  0.00     0.040 A 
HETATM   14 BR   UNL     1       3.542   9.343  24.131  0.00  0.00    -0.048 Br
BRANCH   9  15
HETATM   15  O   UNL     1       7.593  12.253  20.722  0.00  0.00    -0.360 OA
HETATM   16  H   UNL     1       8.452  12.306  21.173  0.00  0.00     0.217 HD
ENDBRANCH   9  15
BRANCH  11  17
HETATM   17  O   UNL     1       4.034   9.126  21.075  0.00  0.00    -0.359 OA
HETATM   18  H   UNL     1       3.107   9.357  21.251  0.00  0.00     0.217 HD
ENDBRANCH  11  17
ENDBRANCH   1   8
BRANCH   7  19
HETATM   19  C   UNL     1       6.252  14.640  24.388  0.00  0.00     0.084 A 
HETATM   20  C   UNL     1       5.682  14.663  25.663  0.00  0.00     0.143 A 
HETATM   21  F   UNL     1       6.249  13.995  26.678  0.00  0.00    -0.204 F 
HETATM   22  C   UNL     1       4.547  15.430  25.929  0.00  0.00     0.044 A 
HETATM   23  C   UNL     1       3.962  16.183  24.907  0.00  0.00     0.003 A 
HETATM   24  C   UNL     1       4.511  16.164  23.632  0.00  0.00     0.002 A 
HETATM   25  C   UNL     1       5.654  15.406  23.373  0.00  0.00     0.033 A 
ENDBRANCH   7  19
TORSDOF 4
ENDMDL
MODEL 5
REMARK VINA RESULT:    -7.062      5.896      7.923
REMARK INTER + INTRA:          -9.285
REMARK INTER:                  -8.336
REMARK INTRA:                  -0.949
REMARK UNBOUND:                -0.985
REMARK  4 active torsions:
REMARK  status: ('A' for Active; 'I' for Inactive)
REMARK    1  A    between atoms: O_1  and  C_2 
REMARK    2  A    between atoms: C_4  and  O_5 
REMARK    3  A    between atoms: C_6  and  C_10 
REMARK    4  A    between atoms: N_16  and  C_17 
ROOT
HETATM    1  C   UNL     1       0.097  12.491  23.738  0.00  0.00     0.172 A 
HETATM    2  N   UNL     1      -0.188  13.054  22.590  0.00  0.00    -0.151 NA
HETATM    3  N   UNL     1      -1.417  12.580  22.255  0.00  0.00    -0.226 N 
HETATM    4  H   UNL     1      -1.963  12.967  21.498  0.00  0.00     0.194 HD
HETATM    5  C   UNL     1      -1.902  11.734  23.237  0.00  0.00     0.349 A 
HETATM    6  O   UNL     1      -3.029  11.265  23.259  0.00  0.00    -0.245 OA
HETATM    7  N   UNL     1      -0.888  11.636  24.176  0.00  0.00    -0.241 N 
ENDROOT
BRANCH   1   8
HETATM    8  C   UNL     1       1.397  12.735  24.432  0.00  0.00     0.047 A 
HETATM    9  C   UNL     1       2.425  11.772  24.399  0.00  0.00     0.082 A 
HETATM   10  C   UNL     1       3.676  12.023  24.973  0.00  0.00     0.075 A 
HETATM   11  C   UNL     1       3.916  13.250  25.583  0.00  0.00     0.085 A 
HETATM   12  C   UNL     1       2.890  14.188  25.689  0.00  0.00     0.045 A 
HETATM   13  C   UNL     1       1.625  13.914  25.155  0.00  0.00     0.040 A 
HETATM   14 BR   UNL     1       3.176  15.879  26.502  0.00  0.00    -0.048 Br
BRANCH   9  15
HETATM   15  O   UNL     1       2.243  10.568  23.775  0.00  0.00    -0.360 OA
HETATM   16  H   UNL     1       2.583   9.846  24.327  0.00  0.00     0.217 HD
ENDBRANCH   9  15
BRANCH  11  17
HETATM   17  O   UNL     1       5.160  13.532  26.073  0.00  0.00    -0.359 OA
HETATM   18  H   UNL     1       5.111  13.662  27.034  0.00  0.00     0.217 HD
ENDBRANCH  11  17
ENDBRANCH   1   8
BRANCH   7  19
HETATM   19  C   UNL     1      -1.110  10.972  25.400  0.00  0.00     0.084 A 
HETATM   20  C   UNL     1      -0.671   9.669  25.644  0.00  0.00     0.143 A 
HETATM   21  F   UNL     1      -0.012   8.980  24.701  0.00  0.00    -0.204 F 
HETATM   22  C   UNL     1      -0.851   9.072  26.892  0.00  0.00     0.044 A 
HETATM   23  C   UNL     1      -1.485   9.781  27.917  0.00  0.00     0.003 A 
HETATM   24  C   UNL     1      -1.935  11.075  27.688  0.00  0.00     0.002 A 
HETATM   25  C   UNL     1      -1.742  11.672  26.442  0.00  0.00     0.033 A 
ENDBRANCH   7  19
TORSDOF 4
ENDMDL
MODEL 6
REMARK VINA RESULT:    -6.893      1.888      2.285
REMARK INTER + INTRA:          -9.087
REMARK INTER:                  -8.144
REMARK INTRA:                  -0.943
REMARK UNBOUND:                -0.985
REMARK  4 active torsions:
REMARK  status: ('A' for Active; 'I' for Inactive)
REMARK    1  A    between atoms: O_1  and  C_2 
REMARK    2  A    between atoms: C_4  and  O_5 
REMARK    3  A    between atoms: C_6  and  C_10 
REMARK    4  A    between atoms: N_16  and  C_17 
ROOT
HETATM    1  C   UNL     1       7.514  12.561  24.907  0.00  0.00     0.172 A 
HETATM    2  N   UNL     1       8.631  12.126  25.436  0.00  0.00    -0.151 NA
HETATM    3  N   UNL     1       9.168  13.200  26.073  0.00  0.00    -0.226 N 
HETATM    4  H   UNL     1       9.949  13.122  26.709  0.00  0.00     0.194 HD
HETATM    5  C   UNL     1       8.342  14.304  25.955  0.00  0.00     0.349 A 
HETATM    6  O   UNL     1       8.512  15.367  26.531  0.00  0.00    -0.245 OA
HETATM    7  N   UNL     1       7.292  13.898  25.147  0.00  0.00    -0.241 N 
ENDROOT
BRANCH   1   8
HETATM    8  C   UNL     1       6.637  11.676  24.084  0.00  0.00     0.047 A 
HETATM    9  C   UNL     1       5.487  11.081  24.640  0.00  0.00     0.082 A 
HETATM   10  C   UNL     1       4.612  10.318  23.859  0.00  0.00     0.075 A 
HETATM   11  C   UNL     1       4.875  10.149  22.504  0.00  0.00     0.085 A 
HETATM   12  C   UNL     1       6.044  10.670  21.950  0.00  0.00     0.045 A 
HETATM   13  C   UNL     1       6.942  11.391  22.746  0.00  0.00     0.040 A 
HETATM   14 BR   UNL     1       6.438  10.472  20.104  0.00  0.00    -0.048 Br
BRANCH   9  15
HETATM   15  O   UNL     1       5.170  11.256  25.960  0.00  0.00    -0.360 OA
HETATM   16  H   UNL     1       4.266  11.599  26.048  0.00  0.00     0.217 HD
ENDBRANCH   9  15
BRANCH  11  17
HETATM   17  O   UNL     1       3.983   9.474  21.718  0.00  0.00    -0.359 OA
HETATM   18  H   UNL     1       3.631  10.070  21.037  0.00  0.00     0.217 HD
ENDBRANCH  11  17
ENDBRANCH   1   8
BRANCH   7  19
HETATM   19  C   UNL     1       6.177  14.737  24.950  0.00  0.00     0.084 A 
HETATM   20  C   UNL     1       5.869  15.308  23.713  0.00  0.00     0.143 A 
HETATM   21  F   UNL     1       6.643  15.080  22.642  0.00  0.00    -0.204 F 
HETATM   22  C   UNL     1       4.717  16.078  23.544  0.00  0.00     0.044 A 
HETATM   23  C   UNL     1       3.858  16.291  24.626  0.00  0.00     0.003 A 
HETATM   24  C   UNL     1       4.155  15.737  25.864  0.00  0.00     0.002 A 
HETATM   25  C   UNL     1       5.301  14.958  26.026  0.00  0.00     0.033 A 
ENDBRANCH   7  19
TORSDOF 4
ENDMDL
MODEL 7
REMARK VINA RESULT:    -6.694      4.997      6.703
REMARK INTER + INTRA:          -8.852
REMARK INTER:                  -8.049
REMARK INTRA:                  -0.803
REMARK UNBOUND:                -0.985
REMARK  4 active torsions:
REMARK  status: ('A' for Active; 'I' for Inactive)
REMARK    1  A    between atoms: O_1  and  C_2 
REMARK    2  A    between atoms: C_4  and  O_5 
REMARK    3  A    between atoms: C_6  and  C_10 
REMARK    4  A    between atoms: N_16  and  C_17 
ROOT
HETATM    1  C   UNL     1       2.365  11.265  24.477  0.00  0.00     0.172 A 
HETATM    2  N   UNL     1       2.723  10.006  24.445  0.00  0.00    -0.151 NA
HETATM    3  N   UNL     1       4.081  10.019  24.487  0.00  0.00    -0.226 N 
HETATM    4  H   UNL     1       4.629   9.184  24.642  0.00  0.00     0.194 HD
HETATM    5  C   UNL     1       4.557  11.315  24.578  0.00  0.00     0.349 A 
HETATM    6  O   UNL     1       5.727  11.617  24.757  0.00  0.00    -0.245 OA
HETATM    7  N   UNL     1       3.437  12.127  24.515  0.00  0.00    -0.241 N 
ENDROOT
BRANCH   1   8
HETATM    8  C   UNL     1       0.930  11.677  24.412  0.00  0.00     0.047 A 
HETATM    9  C   UNL     1       0.423  12.349  23.283  0.00  0.00     0.082 A 
HETATM   10  C   UNL     1      -0.936  12.666  23.174  0.00  0.00     0.075 A 
HETATM   11  C   UNL     1      -1.807  12.303  24.196  0.00  0.00     0.085 A 
HETATM   12  C   UNL     1      -1.313  11.702  25.353  0.00  0.00     0.045 A 
HETATM   13  C   UNL     1       0.054  11.430  25.478  0.00  0.00     0.040 A 
HETATM   14 BR   UNL     1      -2.466  11.181  26.767  0.00  0.00    -0.048 Br
BRANCH   9  15
HETATM   15  O   UNL     1       1.238  12.688  22.238  0.00  0.00    -0.360 OA
HETATM   16  H   UNL     1       1.298  13.653  22.154  0.00  0.00     0.217 HD
ENDBRANCH   9  15
BRANCH  11  17
HETATM   17  O   UNL     1      -3.147  12.537  24.060  0.00  0.00    -0.359 OA
HETATM   18  H   UNL     1      -3.640  11.715  24.221  0.00  0.00     0.217 HD
ENDBRANCH  11  17
ENDBRANCH   1   8
BRANCH   7  19
HETATM   19  C   UNL     1       3.547  13.514  24.740  0.00  0.00     0.084 A 
HETATM   20  C   UNL     1       4.057  14.398  23.787  0.00  0.00     0.143 A 
HETATM   21  F   UNL     1       4.476  13.950  22.594  0.00  0.00    -0.204 F 
HETATM   22  C   UNL     1       4.085  15.773  24.023  0.00  0.00     0.044 A 
HETATM   23  C   UNL     1       3.604  16.280  25.234  0.00  0.00     0.003 A 
HETATM   24  C   UNL     1       3.102  15.414  26.196  0.00  0.00     0.002 A 
HETATM   25  C   UNL     1       3.064  14.041  25.950  0.00  0.00     0.033 A 
ENDBRANCH   7  19
TORSDOF 4
ENDMDL
MODEL 8
REMARK VINA RESULT:    -6.622      6.919      8.981
REMARK INTER + INTRA:          -8.768
REMARK INTER:                  -7.783
REMARK INTRA:                  -0.985
REMARK UNBOUND:                -0.985
REMARK  4 active torsions:
REMARK  status: ('A' for Active; 'I' for Inactive)
REMARK    1  A    between atoms: O_1  and  C_2 
REMARK    2  A    between atoms: C_4  and  O_5 
REMARK    3  A    between atoms: C_6  and  C_10 
REMARK    4  A    between atoms: N_16  and  C_17 
ROOT
HETATM    1  C   UNL     1      -1.691  11.293  24.231  0.00  0.00     0.172 A 
HETATM    2  N   UNL     1      -2.776  11.049  23.539  0.00  0.00    -0.151 NA
HETATM    3  N   UNL     1      -2.733  11.914  22.491  0.00  0.00    -0.226 N 
HETATM    4  H   UNL     1      -3.357  11.842  21.699  0.00  0.00     0.194 HD
HETATM    5  C   UNL     1      -1.580  12.678  22.531  0.00  0.00     0.349 A 
HETATM    6  O   UNL     1      -1.221  13.445  21.652  0.00  0.00    -0.245 OA
HETATM    7  N   UNL     1      -0.931  12.309  23.698  0.00  0.00    -0.241 N 
ENDROOT
BRANCH   1   8
HETATM    8  C   UNL     1      -1.385  10.562  25.497  0.00  0.00     0.047 A 
HETATM    9  C   UNL     1      -2.181  10.743  26.645  0.00  0.00     0.082 A 
HETATM   10  C   UNL     1      -1.956  10.002  27.811  0.00  0.00     0.075 A 
HETATM   11  C   UNL     1      -0.932   9.061  27.837  0.00  0.00     0.085 A 
HETATM   12  C   UNL     1      -0.089   8.918  26.736  0.00  0.00     0.045 A 
HETATM   13  C   UNL     1      -0.287   9.696  25.589  0.00  0.00     0.040 A 
HETATM   14 BR   UNL     1       1.314   7.639  26.723  0.00  0.00    -0.048 Br
BRANCH   9  15
HETATM   15  O   UNL     1      -3.223  11.629  26.649  0.00  0.00    -0.360 OA
HETATM   16  H   UNL     1      -3.976  11.269  26.152  0.00  0.00     0.217 HD
ENDBRANCH   9  15
BRANCH  11  17
HETATM   17  O   UNL     1      -0.758   8.277  28.943  0.00  0.00    -0.359 OA
HETATM   18  H   UNL     1      -1.622   8.068  29.335  0.00  0.00     0.217 HD
ENDBRANCH  11  17
ENDBRANCH   1   8
BRANCH   7  19
HETATM   19  C   UNL     1       0.368  12.784  23.973  0.00  0.00     0.084 A 
HETATM   20  C   UNL     1       0.672  13.540  25.107  0.00  0.00     0.143 A 
HETATM   21  F   UNL     1      -0.281  13.855  25.996  0.00  0.00    -0.204 F 
HETATM   22  C   UNL     1       1.984  13.932  25.378  0.00  0.00     0.044 A 
HETATM   23  C   UNL     1       3.012  13.572  24.502  0.00  0.00     0.003 A 
HETATM   24  C   UNL     1       2.725  12.829  23.365  0.00  0.00     0.002 A 
HETATM   25  C   UNL     1       1.413  12.428  23.105  0.00  0.00     0.033 A 
ENDBRANCH   7  19
TORSDOF 4
ENDMDL
