MODEL 1
REMARK VINA RESULT:    -7.007      0.000      0.000
REMARK INTER + INTRA:          -9.178
REMARK INTER:                  -8.220
REMARK INTRA:                  -0.958
REMARK UNBOUND:                -0.942
REMARK  4 active torsions:
REMARK  status: ('A' for Active; 'I' for Inactive)
REMARK    1  A    between atoms: O_1  and  C_2 
REMARK    2  A    between atoms: C_4  and  O_5 
REMARK    3  A    between atoms: C_6  and  C_7 
REMARK    4  A    between atoms: N_11  and  C_12 
ROOT
HETATM    1  C   UNL     1       5.573   7.622  20.625  0.00  0.00     0.073 C 
HETATM    2  C   UNL     1       6.825   8.216  20.736  0.00  0.00     0.053 C 
HETATM    3  C   UNL     1       7.164   8.665  19.460  0.00  0.00     0.141 C 
HETATM    4  N   UNL     1       6.239   8.360  18.559  0.00  0.00    -0.179 NA
HETATM    5  N   UNL     1       5.204   7.837  19.283  0.00  0.00    -0.230 N 
ENDROOT
BRANCH   1   6
HETATM    6  C   UNL     1       4.826   6.887  21.676  0.00  0.00     0.027 C 
HETATM    7  C   UNL     1       3.875   7.522  22.501  0.00  0.00     0.081 C 
HETATM    8  C   UNL     1       3.084   6.804  23.402  0.00  0.00     0.075 C 
HETATM    9  C   UNL     1       3.223   5.420  23.487  0.00  0.00     0.085 C 
HETATM   10  C   UNL     1       4.212   4.775  22.748  0.00  0.00     0.040 C 
HETATM   11  C   UNL     1       5.042   5.514  21.893  0.00  0.00     0.037 C 
HETATM   12  I   UNL     1       4.449   2.696  22.792  0.00  0.00    -0.042 I 
BRANCH   7  13
HETATM   13  O   UNL     1       3.695   8.880  22.433  0.00  0.00    -0.360 OA
HETATM   14  H   UNL     1       2.756   9.090  22.558  0.00  0.00     0.217 HD
ENDBRANCH   7  13
BRANCH   9  15
HETATM   15  O   UNL     1       2.387   4.705  24.299  0.00  0.00    -0.359 OA
HETATM   16  H   UNL     1       1.512   5.126  24.317  0.00  0.00     0.217 HD
ENDBRANCH   9  15
ENDBRANCH   1   6
BRANCH   5  17
HETATM   17  C   UNL     1       3.999   7.552  18.582  0.00  0.00     0.097 A 
HETATM   18  C   UNL     1       2.975   8.519  18.576  0.00  0.00     0.035 A 
HETATM   19  C   UNL     1       1.824   8.327  17.808  0.00  0.00     0.002 A 
HETATM   20  C   UNL     1       1.671   7.162  17.059  0.00  0.00     0.003 A 
HETATM   21  C   UNL     1       2.648   6.167  17.120  0.00  0.00     0.045 A 
HETATM   22  C   UNL     1       3.788   6.353  17.902  0.00  0.00     0.145 A 
HETATM   23  F   UNL     1       4.647   5.329  18.001  0.00  0.00    -0.204 F 
ENDBRANCH   5  17
TORSDOF 4
ENDMDL
MODEL 2
REMARK VINA RESULT:    -7.003      6.533      8.222
REMARK INTER + INTRA:          -9.173
REMARK INTER:                  -8.619
REMARK INTRA:                  -0.554
REMARK UNBOUND:                -0.942
REMARK  4 active torsions:
REMARK  status: ('A' for Active; 'I' for Inactive)
REMARK    1  A    between atoms: O_1  and  C_2 
REMARK    2  A    between atoms: C_4  and  O_5 
REMARK    3  A    between atoms: C_6  and  C_7 
REMARK    4  A    between atoms: N_11  and  C_12 
ROOT
HETATM    1  C   UNL     1      -0.112   9.600  26.655  0.00  0.00     0.073 C 
HETATM    2  C   UNL     1      -0.473   9.217  27.941  0.00  0.00     0.053 C 
HETATM    3  C   UNL     1      -1.394  10.162  28.391  0.00  0.00     0.141 C 
HETATM    4  N   UNL     1      -1.600  11.124  27.501  0.00  0.00    -0.179 NA
HETATM    5  N   UNL     1      -0.920  10.722  26.385  0.00  0.00    -0.230 N 
ENDROOT
BRANCH   1   6
HETATM    6  C   UNL     1       0.928   8.990  25.789  0.00  0.00     0.027 C 
HETATM    7  C   UNL     1       0.947   7.610  25.502  0.00  0.00     0.081 C 
HETATM    8  C   UNL     1       1.850   7.060  24.587  0.00  0.00     0.075 C 
HETATM    9  C   UNL     1       2.754   7.891  23.929  0.00  0.00     0.085 C 
HETATM   10  C   UNL     1       2.817   9.244  24.254  0.00  0.00     0.040 C 
HETATM   11  C   UNL     1       1.948   9.773  25.218  0.00  0.00     0.037 C 
HETATM   12  I   UNL     1       4.117  10.558  23.275  0.00  0.00    -0.042 I 
BRANCH   7  13
HETATM   13  O   UNL     1       0.061   6.762  26.115  0.00  0.00    -0.360 OA
HETATM   14  H   UNL     1      -0.735   6.671  25.567  0.00  0.00     0.217 HD
ENDBRANCH   7  13
BRANCH   9  15
HETATM   15  O   UNL     1       3.574   7.370  22.966  0.00  0.00    -0.359 OA
HETATM   16  H   UNL     1       4.123   8.076  22.589  0.00  0.00     0.217 HD
ENDBRANCH   9  15
ENDBRANCH   1   6
BRANCH   5  17
HETATM   17  C   UNL     1      -1.085  11.500  25.207  0.00  0.00     0.097 A 
HETATM   18  C   UNL     1      -0.199  12.570  24.973  0.00  0.00     0.035 A 
HETATM   19  C   UNL     1      -0.255  13.287  23.775  0.00  0.00     0.002 A 
HETATM   20  C   UNL     1      -1.206  12.961  22.811  0.00  0.00     0.003 A 
HETATM   21  C   UNL     1      -2.134  11.952  23.067  0.00  0.00     0.045 A 
HETATM   22  C   UNL     1      -2.088  11.249  24.272  0.00  0.00     0.145 A 
HETATM   23  F   UNL     1      -3.060  10.357  24.508  0.00  0.00    -0.204 F 
ENDBRANCH   5  17
TORSDOF 4
ENDMDL
MODEL 3
REMARK VINA RESULT:    -6.823      3.079      5.132
REMARK INTER + INTRA:          -8.962
REMARK INTER:                  -8.017
REMARK INTRA:                  -0.945
REMARK UNBOUND:                -0.942
REMARK  4 active torsions:
REMARK  status: ('A' for Active; 'I' for Inactive)
REMARK    1  A    between atoms: O_1  and  C_2 
REMARK    2  A    between atoms: C_4  and  O_5 
REMARK    3  A    between atoms: C_6  and  C_7 
REMARK    4  A    between atoms: N_11  and  C_12 
ROOT
HETATM    1  C   UNL     1       4.429   6.592  20.186  0.00  0.00     0.073 C 
HETATM    2  C   UNL     1       5.570   5.935  19.741  0.00  0.00     0.053 C 
HETATM    3  C   UNL     1       6.569   6.198  20.678  0.00  0.00     0.141 C 
HETATM    4  N   UNL     1       6.148   7.000  21.648  0.00  0.00    -0.179 NA
HETATM    5  N   UNL     1       4.805   7.143  21.427  0.00  0.00    -0.230 N 
ENDROOT
BRANCH   1   6
HETATM    6  C   UNL     1       3.128   6.720  19.483  0.00  0.00     0.027 C 
HETATM    7  C   UNL     1       2.804   7.853  18.708  0.00  0.00     0.081 C 
HETATM    8  C   UNL     1       1.634   7.915  17.947  0.00  0.00     0.075 C 
HETATM    9  C   UNL     1       0.761   6.829  17.938  0.00  0.00     0.085 C 
HETATM   10  C   UNL     1       1.011   5.731  18.759  0.00  0.00     0.040 C 
HETATM   11  C   UNL     1       2.157   5.706  19.566  0.00  0.00     0.037 C 
HETATM   12  I   UNL     1      -0.232   4.048  18.764  0.00  0.00    -0.042 I 
BRANCH   7  13
HETATM   13  O   UNL     1       3.647   8.934  18.676  0.00  0.00    -0.360 OA
HETATM   14  H   UNL     1       3.202   9.681  18.245  0.00  0.00     0.217 HD
ENDBRANCH   7  13
BRANCH   9  15
HETATM   15  O   UNL     1      -0.336   6.850  17.122  0.00  0.00    -0.359 OA
HETATM   16  H   UNL     1      -1.017   7.427  17.506  0.00  0.00     0.217 HD
ENDBRANCH   9  15
ENDBRANCH   1   6
BRANCH   5  17
HETATM   17  C   UNL     1       4.055   7.843  22.411  0.00  0.00     0.097 A 
HETATM   18  C   UNL     1       3.231   7.107  23.285  0.00  0.00     0.035 A 
HETATM   19  C   UNL     1       2.566   7.744  24.335  0.00  0.00     0.002 A 
HETATM   20  C   UNL     1       2.697   9.120  24.513  0.00  0.00     0.003 A 
HETATM   21  C   UNL     1       3.452   9.865  23.607  0.00  0.00     0.045 A 
HETATM   22  C   UNL     1       4.100   9.230  22.547  0.00  0.00     0.145 A 
HETATM   23  F   UNL     1       4.731  10.003  21.652  0.00  0.00    -0.204 F 
ENDBRANCH   5  17
TORSDOF 4
ENDMDL
MODEL 4
REMARK VINA RESULT:    -6.811      2.020      2.503
REMARK INTER + INTRA:          -8.948
REMARK INTER:                  -8.018
REMARK INTRA:                  -0.930
REMARK UNBOUND:                -0.942
REMARK  4 active torsions:
REMARK  status: ('A' for Active; 'I' for Inactive)
REMARK    1  A    between atoms: O_1  and  C_2 
REMARK    2  A    between atoms: C_4  and  O_5 
REMARK    3  A    between atoms: C_6  and  C_7 
REMARK    4  A    between atoms: N_11  and  C_12 
ROOT
HETATM    1  C   UNL     1       5.142   7.276  20.539  0.00  0.00     0.073 C 
HETATM    2  C   UNL     1       6.369   7.894  20.750  0.00  0.00     0.053 C 
HETATM    3  C   UNL     1       6.745   8.453  19.529  0.00  0.00     0.141 C 
HETATM    4  N   UNL     1       5.868   8.196  18.568  0.00  0.00    -0.179 NA
HETATM    5  N   UNL     1       4.820   7.587  19.204  0.00  0.00    -0.230 N 
ENDROOT
BRANCH   1   6
HETATM    6  C   UNL     1       4.376   6.439  21.496  0.00  0.00     0.027 C 
HETATM    7  C   UNL     1       4.440   5.031  21.477  0.00  0.00     0.081 C 
HETATM    8  C   UNL     1       3.819   4.251  22.457  0.00  0.00     0.075 C 
HETATM    9  C   UNL     1       3.123   4.873  23.491  0.00  0.00     0.085 C 
HETATM   10  C   UNL     1       2.969   6.258  23.490  0.00  0.00     0.040 C 
HETATM   11  C   UNL     1       3.545   7.026  22.468  0.00  0.00     0.037 C 
HETATM   12  I   UNL     1       1.976   7.262  25.034  0.00  0.00    -0.042 I 
BRANCH   7  13
HETATM   13  O   UNL     1       5.132   4.382  20.486  0.00  0.00    -0.360 OA
HETATM   14  H   UNL     1       5.237   3.447  20.722  0.00  0.00     0.217 HD
ENDBRANCH   7  13
BRANCH   9  15
HETATM   15  O   UNL     1       2.594   4.117  24.500  0.00  0.00    -0.359 OA
HETATM   16  H   UNL     1       2.038   3.415  24.125  0.00  0.00     0.217 HD
ENDBRANCH   9  15
ENDBRANCH   1   6
BRANCH   5  17
HETATM   17  C   UNL     1       3.654   7.326  18.432  0.00  0.00     0.097 A 
HETATM   18  C   UNL     1       3.528   6.073  17.801  0.00  0.00     0.035 A 
HETATM   19  C   UNL     1       2.351   5.735  17.129  0.00  0.00     0.002 A 
HETATM   20  C   UNL     1       1.299   6.647  17.060  0.00  0.00     0.003 A 
HETATM   21  C   UNL     1       1.447   7.916  17.620  0.00  0.00     0.045 A 
HETATM   22  C   UNL     1       2.630   8.259  18.274  0.00  0.00     0.145 A 
HETATM   23  F   UNL     1       2.757   9.520  18.709  0.00  0.00    -0.204 F 
ENDBRANCH   5  17
TORSDOF 4
ENDMDL
MODEL 5
REMARK VINA RESULT:    -6.674      1.830      2.113
REMARK INTER + INTRA:          -8.786
REMARK INTER:                  -7.834
REMARK INTRA:                  -0.952
REMARK UNBOUND:                -0.942
REMARK  4 active torsions:
REMARK  status: ('A' for Active; 'I' for Inactive)
REMARK    1  A    between atoms: O_1  and  C_2 
REMARK    2  A    between atoms: C_4  and  O_5 
REMARK    3  A    between atoms: C_6  and  C_7 
REMARK    4  A    between atoms: N_11  and  C_12 
ROOT
HETATM    1  C   UNL     1       5.464   7.797  20.650  0.00  0.00     0.073 C 
HETATM    2  C   UNL     1       6.761   8.288  20.746  0.00  0.00     0.053 C 
HETATM    3  C   UNL     1       7.157   8.615  19.449  0.00  0.00     0.141 C 
HETATM    4  N   UNL     1       6.223   8.326  18.552  0.00  0.00    -0.179 NA
HETATM    5  N   UNL     1       5.135   7.946  19.288  0.00  0.00    -0.230 N 
ENDROOT
BRANCH   1   6
HETATM    6  C   UNL     1       4.640   7.205  21.733  0.00  0.00     0.027 C 
HETATM    7  C   UNL     1       4.582   5.814  21.955  0.00  0.00     0.081 C 
HETATM    8  C   UNL     1       3.907   5.270  23.052  0.00  0.00     0.075 C 
HETATM    9  C   UNL     1       3.280   6.118  23.962  0.00  0.00     0.085 C 
HETATM   10  C   UNL     1       3.246   7.490  23.724  0.00  0.00     0.040 C 
HETATM   11  C   UNL     1       3.874   8.019  22.588  0.00  0.00     0.037 C 
HETATM   12  I   UNL     1       2.361   8.826  25.070  0.00  0.00    -0.042 I 
BRANCH   7  13
HETATM   13  O   UNL     1       5.203   4.948  21.092  0.00  0.00    -0.360 OA
HETATM   14  H   UNL     1       4.849   4.053  21.218  0.00  0.00     0.217 HD
ENDBRANCH   7  13
BRANCH   9  15
HETATM   15  O   UNL     1       2.699   5.594  25.084  0.00  0.00    -0.359 OA
HETATM   16  H   UNL     1       1.924   5.066  24.834  0.00  0.00     0.217 HD
ENDBRANCH   9  15
ENDBRANCH   1   6
BRANCH   5  17
HETATM   17  C   UNL     1       3.921   7.715  18.584  0.00  0.00     0.097 A 
HETATM   18  C   UNL     1       2.920   8.706  18.619  0.00  0.00     0.035 A 
HETATM   19  C   UNL     1       1.762   8.569  17.850  0.00  0.00     0.002 A 
HETATM   20  C   UNL     1       1.579   7.436  17.059  0.00  0.00     0.003 A 
HETATM   21  C   UNL     1       2.532   6.418  17.078  0.00  0.00     0.045 A 
HETATM   22  C   UNL     1       3.679   6.548  17.861  0.00  0.00     0.145 A 
HETATM   23  F   UNL     1       4.515   5.501  17.918  0.00  0.00    -0.204 F 
ENDBRANCH   5  17
TORSDOF 4
ENDMDL
MODEL 6
REMARK VINA RESULT:    -6.319      2.801      3.793
REMARK INTER + INTRA:          -8.369
REMARK INTER:                  -7.425
REMARK INTRA:                  -0.944
REMARK UNBOUND:                -0.942
REMARK  4 active torsions:
REMARK  status: ('A' for Active; 'I' for Inactive)
REMARK    1  A    between atoms: O_1  and  C_2 
REMARK    2  A    between atoms: C_4  and  O_5 
REMARK    3  A    between atoms: C_6  and  C_7 
REMARK    4  A    between atoms: N_11  and  C_12 
ROOT
HETATM    1  C   UNL     1       2.866   7.574  19.040  0.00  0.00     0.073 C 
HETATM    2  C   UNL     1       2.810   8.881  18.572  0.00  0.00     0.053 C 
HETATM    3  C   UNL     1       1.839   8.902  17.571  0.00  0.00     0.141 C 
HETATM    4  N   UNL     1       1.318   7.702  17.354  0.00  0.00    -0.179 NA
HETATM    5  N   UNL     1       1.845   6.907  18.335  0.00  0.00    -0.230 N 
ENDROOT
BRANCH   1   6
HETATM    6  C   UNL     1       3.821   7.008  20.026  0.00  0.00     0.027 C 
HETATM    7  C   UNL     1       5.177   6.786  19.711  0.00  0.00     0.081 C 
HETATM    8  C   UNL     1       6.099   6.373  20.677  0.00  0.00     0.075 C 
HETATM    9  C   UNL     1       5.679   6.180  21.991  0.00  0.00     0.085 C 
HETATM   10  C   UNL     1       4.330   6.307  22.314  0.00  0.00     0.040 C 
HETATM   11  C   UNL     1       3.403   6.663  21.324  0.00  0.00     0.037 C 
HETATM   12  I   UNL     1       3.635   6.076  24.274  0.00  0.00    -0.042 I 
BRANCH   7  13
HETATM   13  O   UNL     1       5.634   6.984  18.433  0.00  0.00    -0.360 OA
HETATM   14  H   UNL     1       6.551   6.676  18.364  0.00  0.00     0.217 HD
ENDBRANCH   7  13
BRANCH   9  15
HETATM   15  O   UNL     1       6.597   5.866  22.955  0.00  0.00    -0.359 OA
HETATM   16  H   UNL     1       6.372   6.324  23.781  0.00  0.00     0.217 HD
ENDBRANCH   9  15
ENDBRANCH   1   6
BRANCH   5  17
HETATM   17  C   UNL     1       1.343   5.581  18.438  0.00  0.00     0.097 A 
HETATM   18  C   UNL     1       0.028   5.389  18.905  0.00  0.00     0.035 A 
HETATM   19  C   UNL     1      -0.541   4.114  18.914  0.00  0.00     0.002 A 
HETATM   20  C   UNL     1       0.200   3.015  18.481  0.00  0.00     0.003 A 
HETATM   21  C   UNL     1       1.527   3.188  18.088  0.00  0.00     0.045 A 
HETATM   22  C   UNL     1       2.100   4.460  18.097  0.00  0.00     0.145 A 
HETATM   23  F   UNL     1       3.404   4.556  17.803  0.00  0.00    -0.204 F 
ENDBRANCH   5  17
TORSDOF 4
ENDMDL
MODEL 7
REMARK VINA RESULT:    -6.248      5.039      6.733
REMARK INTER + INTRA:          -8.286
REMARK INTER:                  -7.370
REMARK INTRA:                  -0.916
REMARK UNBOUND:                -0.942
REMARK  4 active torsions:
REMARK  status: ('A' for Active; 'I' for Inactive)
REMARK    1  A    between atoms: O_1  and  C_2 
REMARK    2  A    between atoms: C_4  and  O_5 
REMARK    3  A    between atoms: C_6  and  C_7 
REMARK    4  A    between atoms: N_11  and  C_12 
ROOT
HETATM    1  C   UNL     1       2.196   8.431  25.658  0.00  0.00     0.073 C 
HETATM    2  C   UNL     1       2.436   7.974  26.949  0.00  0.00     0.053 C 
HETATM    3  C   UNL     1       3.510   7.089  26.861  0.00  0.00     0.141 C 
HETATM    4  N   UNL     1       3.928   6.930  25.612  0.00  0.00    -0.179 NA
HETATM    5  N   UNL     1       3.216   7.844  24.885  0.00  0.00    -0.230 N 
ENDROOT
BRANCH   1   6
HETATM    6  C   UNL     1       1.084   9.302  25.201  0.00  0.00     0.027 C 
HETATM    7  C   UNL     1      -0.220   8.806  24.999  0.00  0.00     0.081 C 
HETATM    8  C   UNL     1      -1.290   9.651  24.691  0.00  0.00     0.075 C 
HETATM    9  C   UNL     1      -1.075  11.023  24.588  0.00  0.00     0.085 C 
HETATM   10  C   UNL     1       0.217  11.533  24.697  0.00  0.00     0.040 C 
HETATM   11  C   UNL     1       1.292  10.669  24.945  0.00  0.00     0.037 C 
HETATM   12  I   UNL     1       0.607  13.587  24.598  0.00  0.00    -0.042 I 
BRANCH   7  13
HETATM   13  O   UNL     1      -0.476   7.463  25.110  0.00  0.00    -0.360 OA
HETATM   14  H   UNL     1       0.301   7.013  25.478  0.00  0.00     0.217 HD
ENDBRANCH   7  13
BRANCH   9  15
HETATM   15  O   UNL     1      -2.136  11.860  24.379  0.00  0.00    -0.359 OA
HETATM   16  H   UNL     1      -2.140  12.158  23.454  0.00  0.00     0.217 HD
ENDBRANCH   9  15
ENDBRANCH   1   6
BRANCH   5  17
HETATM   17  C   UNL     1       3.566   8.001  23.516  0.00  0.00     0.097 A 
HETATM   18  C   UNL     1       3.443   6.893  22.654  0.00  0.00     0.035 A 
HETATM   19  C   UNL     1       3.668   7.034  21.283  0.00  0.00     0.002 A 
HETATM   20  C   UNL     1       4.039   8.272  20.760  0.00  0.00     0.003 A 
HETATM   21  C   UNL     1       4.235   9.354  21.617  0.00  0.00     0.045 A 
HETATM   22  C   UNL     1       4.028   9.207  22.989  0.00  0.00     0.145 A 
HETATM   23  F   UNL     1       4.323  10.250  23.778  0.00  0.00    -0.204 F 
ENDBRANCH   5  17
TORSDOF 4
ENDMDL
MODEL 8
REMARK VINA RESULT:    -6.172      2.729      3.173
REMARK INTER + INTRA:          -8.197
REMARK INTER:                  -7.255
REMARK INTRA:                  -0.942
REMARK UNBOUND:                -0.942
REMARK  4 active torsions:
REMARK  status: ('A' for Active; 'I' for Inactive)
REMARK    1  A    between atoms: O_1  and  C_2 
REMARK    2  A    between atoms: C_4  and  O_5 
REMARK    3  A    between atoms: C_6  and  C_7 
REMARK    4  A    between atoms: N_11  and  C_12 
ROOT
HETATM    1  C   UNL     1       5.378   7.827  20.820  0.00  0.00     0.073 C 
HETATM    2  C   UNL     1       6.378   8.677  20.365  0.00  0.00     0.053 C 
HETATM    3  C   UNL     1       6.519   8.427  19.000  0.00  0.00     0.141 C 
HETATM    4  N   UNL     1       5.714   7.460  18.582  0.00  0.00    -0.179 NA
HETATM    5  N   UNL     1       4.920   7.174  19.659  0.00  0.00    -0.230 N 
ENDROOT
BRANCH   1   6
HETATM    6  C   UNL     1       4.934   7.623  22.222  0.00  0.00     0.027 C 
HETATM    7  C   UNL     1       5.519   6.651  23.059  0.00  0.00     0.081 C 
HETATM    8  C   UNL     1       5.186   6.548  24.412  0.00  0.00     0.075 C 
HETATM    9  C   UNL     1       4.260   7.431  24.962  0.00  0.00     0.085 C 
HETATM   10  C   UNL     1       3.602   8.346  24.142  0.00  0.00     0.040 C 
HETATM   11  C   UNL     1       3.898   8.399  22.774  0.00  0.00     0.037 C 
HETATM   12  I   UNL     1       2.232   9.731  24.907  0.00  0.00    -0.042 I 
BRANCH   7  13
HETATM   13  O   UNL     1       6.449   5.776  22.559  0.00  0.00    -0.360 OA
HETATM   14  H   UNL     1       6.252   5.587  21.628  0.00  0.00     0.217 HD
ENDBRANCH   7  13
BRANCH   9  15
HETATM   15  O   UNL     1       4.003   7.392  26.304  0.00  0.00    -0.359 OA
HETATM   16  H   UNL     1       4.807   7.132  26.783  0.00  0.00     0.217 HD
ENDBRANCH   9  15
ENDBRANCH   1   6
BRANCH   5  17
HETATM   17  C   UNL     1       3.848   6.262  19.453  0.00  0.00     0.097 A 
HETATM   18  C   UNL     1       4.102   4.882  19.578  0.00  0.00     0.035 A 
HETATM   19  C   UNL     1       3.055   3.960  19.497  0.00  0.00     0.002 A 
HETATM   20  C   UNL     1       1.753   4.400  19.267  0.00  0.00     0.003 A 
HETATM   21  C   UNL     1       1.507   5.759  19.069  0.00  0.00     0.045 A 
HETATM   22  C   UNL     1       2.556   6.676  19.132  0.00  0.00     0.145 A 
HETATM   23  F   UNL     1       2.282   7.955  18.839  0.00  0.00    -0.204 F 
ENDBRANCH   5  17
TORSDOF 4
ENDMDL
MODEL 9
REMARK VINA RESULT:    -5.708      3.267      5.647
REMARK INTER + INTRA:          -7.651
REMARK INTER:                  -6.740
REMARK INTRA:                  -0.911
REMARK UNBOUND:                -0.942
REMARK  4 active torsions:
REMARK  status: ('A' for Active; 'I' for Inactive)
REMARK    1  A    between atoms: O_1  and  C_2 
REMARK    2  A    between atoms: C_4  and  O_5 
REMARK    3  A    between atoms: C_6  and  C_7 
REMARK    4  A    between atoms: N_11  and  C_12 
ROOT
HETATM    1  C   UNL     1       4.219   8.542  22.051  0.00  0.00     0.073 C 
HETATM    2  C   UNL     1       4.070   9.885  22.378  0.00  0.00     0.053 C 
HETATM    3  C   UNL     1       3.786   9.929  23.743  0.00  0.00     0.141 C 
HETATM    4  N   UNL     1       3.706   8.719  24.278  0.00  0.00    -0.179 NA
HETATM    5  N   UNL     1       4.097   7.868  23.281  0.00  0.00    -0.230 N 
ENDROOT
BRANCH   1   6
HETATM    6  C   UNL     1       4.413   7.958  20.700  0.00  0.00     0.027 C 
HETATM    7  C   UNL     1       5.600   7.291  20.336  0.00  0.00     0.081 C 
HETATM    8  C   UNL     1       5.730   6.634  19.109  0.00  0.00     0.075 C 
HETATM    9  C   UNL     1       4.660   6.624  18.218  0.00  0.00     0.085 C 
HETATM   10  C   UNL     1       3.505   7.347  18.512  0.00  0.00     0.040 C 
HETATM   11  C   UNL     1       3.409   8.053  19.719  0.00  0.00     0.037 C 
HETATM   12  I   UNL     1       1.843   7.341  17.241  0.00  0.00    -0.042 I 
BRANCH   7  13
HETATM   13  O   UNL     1       6.669   7.261  21.195  0.00  0.00    -0.360 OA
HETATM   14  H   UNL     1       6.355   7.124  22.102  0.00  0.00     0.217 HD
ENDBRANCH   7  13
BRANCH   9  15
HETATM   15  O   UNL     1       4.752   5.905  17.059  0.00  0.00    -0.359 OA
HETATM   16  H   UNL     1       5.681   5.853  16.780  0.00  0.00     0.217 HD
ENDBRANCH   9  15
ENDBRANCH   1   6
BRANCH   5  17
HETATM   17  C   UNL     1       4.250   6.495  23.620  0.00  0.00     0.097 A 
HETATM   18  C   UNL     1       5.434   6.084  24.263  0.00  0.00     0.035 A 
HETATM   19  C   UNL     1       5.576   4.770  24.713  0.00  0.00     0.002 A 
HETATM   20  C   UNL     1       4.552   3.847  24.508  0.00  0.00     0.003 A 
HETATM   21  C   UNL     1       3.408   4.228  23.806  0.00  0.00     0.045 A 
HETATM   22  C   UNL     1       3.276   5.536  23.341  0.00  0.00     0.145 A 
HETATM   23  F   UNL     1       2.203   5.824  22.591  0.00  0.00    -0.204 F 
ENDBRANCH   5  17
TORSDOF 4
ENDMDL
