MODEL 1
REMARK VINA RESULT:    -6.485      0.000      0.000
REMARK INTER + INTRA:         -11.104
REMARK INTER:                 -10.136
REMARK INTRA:                  -0.968
REMARK UNBOUND:                -1.396
REMARK  9 active torsions:
REMARK  status: ('A' for Active; 'I' for Inactive)
REMARK    1  A    between atoms: O_2  and  C_3 
REMARK    2  A    between atoms: C_8  and  S_9 
REMARK    3  A    between atoms: S_9  and  C_10 
REMARK    4  A    between atoms: C_13  and  N_14 
REMARK    5  A    between atoms: N_19  and  C_20 
REMARK    6  A    between atoms: C_20  and  C_21 
REMARK    7  A    between atoms: C_21  and  N_22 
REMARK    8  A    between atoms: N_22  and  C_23 
REMARK    9  A    between atoms: C_23  and  C_24 
ROOT
HETATM    1  C   UNL     1       0.692   8.774  25.025  0.00  0.00     0.176 A 
HETATM    2  N   UNL     1      -0.596   8.962  24.786  0.00  0.00    -0.217 NA
HETATM    3  C   UNL     1      -0.725  10.322  24.561  0.00  0.00     0.145 A 
HETATM    4  C   UNL     1      -1.826  11.163  24.301  0.00  0.00     0.135 A 
HETATM    5  N   UNL     1      -1.614  12.496  24.191  0.00  0.00    -0.228 NA
HETATM    6  C   UNL     1      -0.353  12.959  24.300  0.00  0.00     0.237 A 
HETATM    7  N   UNL     1       0.771  12.253  24.510  0.00  0.00    -0.222 NA
HETATM    8  C   UNL     1       0.508  10.944  24.645  0.00  0.00     0.165 A 
HETATM    9  N   UNL     1       1.406   9.944  24.920  0.00  0.00    -0.307 N 
ENDROOT
BRANCH   1  10
HETATM   10  S   UNL     1       1.352   7.312  25.698  0.00  0.00    -0.051 SA
BRANCH  10  11
HETATM   11  C   UNL     1       1.170   7.417  27.477  0.00  0.00     0.027 A 
HETATM   12  C   UNL     1       0.367   6.509  28.208  0.00  0.00     0.023 A 
HETATM   13  C   UNL     1       0.354   6.519  29.614  0.00  0.00     0.022 A 
HETATM   14  I   UNL     1      -0.859   5.040  27.316  0.00  0.00    -0.043 I 
HETATM   15  C   UNL     1       1.161   7.411  30.309  0.00  0.00     0.038 A 
HETATM   16  C   UNL     1       1.974   8.295  29.609  0.00  0.00     0.069 A 
HETATM   17  C   UNL     1       1.933   8.330  28.208  0.00  0.00     0.057 A 
BRANCH  16  18
HETATM   18  O   UNL     1       2.799   9.089  30.355  0.00  0.00    -0.356 OA
HETATM   19  C   UNL     1       4.173   8.992  29.972  0.00  0.00     0.210 C 
ENDBRANCH  16  18
ENDBRANCH  10  11
ENDBRANCH   1  10
BRANCH   9  20
HETATM   20  C   UNL     1       2.833  10.171  25.022  0.00  0.00     0.163 C 
BRANCH  20  21
HETATM   21  C   UNL     1       3.564  10.331  23.672  0.00  0.00     0.289 C 
BRANCH  21  22
HETATM   22  N   UNL     1       3.947   9.102  22.975  0.00  0.00     0.085 N 
HETATM   23  H   UNL     1       3.165   8.447  22.970  0.00  0.00     0.315 HD
BRANCH  22  24
HETATM   24  C   UNL     1       4.439   9.340  21.620  0.00  0.00     0.277 C 
BRANCH  24  25
HETATM   25  C   UNL     1       4.420   8.083  20.717  0.00  0.00    -0.025 C 
HETATM   26  C   UNL     1       3.741   6.885  21.408  0.00  0.00     0.016 C 
HETATM   27  C   UNL     1       3.616   8.425  19.448  0.00  0.00     0.016 C 
HETATM   28  C   UNL     1       5.852   7.700  20.318  0.00  0.00     0.016 C 
ENDBRANCH  24  25
ENDBRANCH  22  24
ENDBRANCH  21  22
ENDBRANCH  20  21
ENDBRANCH   9  20
BRANCH   4  29
HETATM   29  N   UNL     1      -3.140  10.722  24.188  0.00  0.00    -0.285 NA
HETATM   30  H   UNL     1      -3.387  10.430  23.251  0.00  0.00     0.125 HD
HETATM   31  H   UNL     1      -3.378  10.091  24.946  0.00  0.00     0.125 HD
ENDBRANCH   4  29
TORSDOF 9
ENDMDL
MODEL 2
REMARK VINA RESULT:    -6.395      4.491      7.009
REMARK INTER + INTRA:         -10.969
REMARK INTER:                  -9.512
REMARK INTRA:                  -1.456
REMARK UNBOUND:                -1.396
REMARK  9 active torsions:
REMARK  status: ('A' for Active; 'I' for Inactive)
REMARK    1  A    between atoms: O_2  and  C_3 
REMARK    2  A    between atoms: C_8  and  S_9 
REMARK    3  A    between atoms: S_9  and  C_10 
REMARK    4  A    between atoms: C_13  and  N_14 
REMARK    5  A    between atoms: N_19  and  C_20 
REMARK    6  A    between atoms: C_20  and  C_21 
REMARK    7  A    between atoms: C_21  and  N_22 
REMARK    8  A    between atoms: N_22  and  C_23 
REMARK    9  A    between atoms: C_23  and  C_24 
ROOT
HETATM    1  C   UNL     1       4.089   7.523  20.195  0.00  0.00     0.176 A 
HETATM    2  N   UNL     1       3.346   8.512  19.727  0.00  0.00    -0.217 NA
HETATM    3  C   UNL     1       2.843   8.048  18.524  0.00  0.00     0.145 A 
HETATM    4  C   UNL     1       2.034   8.622  17.523  0.00  0.00     0.135 A 
HETATM    5  N   UNL     1       1.771   7.901  16.407  0.00  0.00    -0.228 NA
HETATM    6  C   UNL     1       2.267   6.651  16.315  0.00  0.00     0.237 A 
HETATM    7  N   UNL     1       3.016   5.992  17.215  0.00  0.00    -0.222 NA
HETATM    8  C   UNL     1       3.277   6.755  18.287  0.00  0.00     0.165 A 
HETATM    9  N   UNL     1       4.053   6.424  19.370  0.00  0.00    -0.307 N 
ENDROOT
BRANCH   1  10
HETATM   10  S   UNL     1       5.219   7.692  21.508  0.00  0.00    -0.051 SA
BRANCH  10  11
HETATM   11  C   UNL     1       4.269   7.730  23.025  0.00  0.00     0.027 A 
HETATM   12  C   UNL     1       4.346   6.697  23.990  0.00  0.00     0.023 A 
HETATM   13  C   UNL     1       3.705   6.817  25.236  0.00  0.00     0.022 A 
HETATM   14  I   UNL     1       5.427   4.906  23.712  0.00  0.00    -0.043 I 
HETATM   15  C   UNL     1       3.006   7.975  25.548  0.00  0.00     0.038 A 
HETATM   16  C   UNL     1       2.938   9.010  24.623  0.00  0.00     0.069 A 
HETATM   17  C   UNL     1       3.518   8.860  23.355  0.00  0.00     0.057 A 
BRANCH  16  18
HETATM   18  O   UNL     1       2.301  10.150  25.025  0.00  0.00    -0.356 OA
HETATM   19  C   UNL     1       2.718  11.314  24.307  0.00  0.00     0.210 C 
ENDBRANCH  16  18
ENDBRANCH  10  11
ENDBRANCH   1  10
BRANCH   9  20
HETATM   20  C   UNL     1       4.649   5.115  19.542  0.00  0.00     0.163 C 
BRANCH  20  21
HETATM   21  C   UNL     1       3.719   4.055  20.169  0.00  0.00     0.289 C 
BRANCH  21  22
HETATM   22  N   UNL     1       2.689   3.480  19.302  0.00  0.00     0.085 N 
HETATM   23  H   UNL     1       2.900   2.500  19.116  0.00  0.00     0.315 HD
BRANCH  22  24
HETATM   24  C   UNL     1       1.338   3.633  19.837  0.00  0.00     0.277 C 
BRANCH  24  25
HETATM   25  C   UNL     1       0.241   3.728  18.750  0.00  0.00    -0.025 C 
HETATM   26  C   UNL     1      -0.998   2.881  19.102  0.00  0.00     0.016 C 
HETATM   27  C   UNL     1      -0.196   5.201  18.647  0.00  0.00     0.016 C 
HETATM   28  C   UNL     1       0.802   3.274  17.395  0.00  0.00     0.016 C 
ENDBRANCH  24  25
ENDBRANCH  22  24
ENDBRANCH  21  22
ENDBRANCH  20  21
ENDBRANCH   9  20
BRANCH   4  29
HETATM   29  N   UNL     1       1.510   9.908  17.581  0.00  0.00    -0.285 NA
HETATM   30  H   UNL     1       1.628  10.430  16.720  0.00  0.00     0.125 HD
HETATM   31  H   UNL     1       0.585   9.906  17.997  0.00  0.00     0.125 HD
ENDBRANCH   4  29
TORSDOF 9
ENDMDL
MODEL 3
REMARK VINA RESULT:    -6.393      6.344      9.466
REMARK INTER + INTRA:         -10.966
REMARK INTER:                  -9.486
REMARK INTRA:                  -1.480
REMARK UNBOUND:                -1.396
REMARK  9 active torsions:
REMARK  status: ('A' for Active; 'I' for Inactive)
REMARK    1  A    between atoms: O_2  and  C_3 
REMARK    2  A    between atoms: C_8  and  S_9 
REMARK    3  A    between atoms: S_9  and  C_10 
REMARK    4  A    between atoms: C_13  and  N_14 
REMARK    5  A    between atoms: N_19  and  C_20 
REMARK    6  A    between atoms: C_20  and  C_21 
REMARK    7  A    between atoms: C_21  and  N_22 
REMARK    8  A    between atoms: N_22  and  C_23 
REMARK    9  A    between atoms: C_23  and  C_24 
ROOT
HETATM    1  C   UNL     1       4.120   3.593  20.383  0.00  0.00     0.176 A 
HETATM    2  N   UNL     1       5.044   3.077  19.589  0.00  0.00    -0.217 NA
HETATM    3  C   UNL     1       4.360   2.207  18.758  0.00  0.00     0.145 A 
HETATM    4  C   UNL     1       4.760   1.323  17.736  0.00  0.00     0.135 A 
HETATM    5  N   UNL     1       3.823   0.543  17.146  0.00  0.00    -0.228 NA
HETATM    6  C   UNL     1       2.540   0.670  17.538  0.00  0.00     0.237 A 
HETATM    7  N   UNL     1       2.039   1.498  18.472  0.00  0.00    -0.222 NA
HETATM    8  C   UNL     1       3.006   2.226  19.049  0.00  0.00     0.165 A 
HETATM    9  N   UNL     1       2.864   3.129  20.072  0.00  0.00    -0.307 N 
ENDROOT
BRANCH   1  10
HETATM   10  S   UNL     1       4.474   4.488  21.832  0.00  0.00    -0.051 SA
BRANCH  10  11
HETATM   11  C   UNL     1       4.526   6.222  21.387  0.00  0.00     0.027 A 
HETATM   12  C   UNL     1       4.059   7.238  22.255  0.00  0.00     0.023 A 
HETATM   13  C   UNL     1       4.242   8.598  21.947  0.00  0.00     0.022 A 
HETATM   14  I   UNL     1       3.083   6.863  24.088  0.00  0.00    -0.043 I 
HETATM   15  C   UNL     1       4.917   8.963  20.789  0.00  0.00     0.038 A 
HETATM   16  C   UNL     1       5.403   7.979  19.935  0.00  0.00     0.069 A 
HETATM   17  C   UNL     1       5.157   6.626  20.209  0.00  0.00     0.057 A 
BRANCH  16  18
HETATM   18  O   UNL     1       6.123   8.407  18.856  0.00  0.00    -0.356 OA
HETATM   19  C   UNL     1       7.387   8.975  19.210  0.00  0.00     0.210 C 
ENDBRANCH  16  18
ENDBRANCH  10  11
ENDBRANCH   1  10
BRANCH   9  20
HETATM   20  C   UNL     1       1.577   3.493  20.630  0.00  0.00     0.163 C 
BRANCH  20  21
HETATM   21  C   UNL     1       0.763   4.494  19.785  0.00  0.00     0.289 C 
BRANCH  21  22
HETATM   22  N   UNL     1       1.380   5.796  19.521  0.00  0.00     0.085 N 
HETATM   23  H   UNL     1       2.395   5.701  19.503  0.00  0.00     0.315 HD
BRANCH  22  24
HETATM   24  C   UNL     1       0.892   6.424  18.295  0.00  0.00     0.277 C 
BRANCH  24  25
HETATM   25  C   UNL     1       2.008   7.048  17.424  0.00  0.00    -0.025 C 
HETATM   26  C   UNL     1       1.555   7.261  15.967  0.00  0.00     0.016 C 
HETATM   27  C   UNL     1       2.363   8.422  18.024  0.00  0.00     0.016 C 
HETATM   28  C   UNL     1       3.255   6.153  17.446  0.00  0.00     0.016 C 
ENDBRANCH  24  25
ENDBRANCH  22  24
ENDBRANCH  21  22
ENDBRANCH  20  21
ENDBRANCH   9  20
BRANCH   4  29
HETATM   29  N   UNL     1       6.073   1.161  17.309  0.00  0.00    -0.285 NA
HETATM   30  H   UNL     1       6.378   1.879  16.663  0.00  0.00     0.125 HD
HETATM   31  H   UNL     1       6.686   0.952  18.090  0.00  0.00     0.125 HD
ENDBRANCH   4  29
TORSDOF 9
ENDMDL
MODEL 4
REMARK VINA RESULT:    -6.356      4.834      7.181
REMARK INTER + INTRA:         -10.911
REMARK INTER:                  -9.252
REMARK INTRA:                  -1.659
REMARK UNBOUND:                -1.396
REMARK  9 active torsions:
REMARK  status: ('A' for Active; 'I' for Inactive)
REMARK    1  A    between atoms: O_2  and  C_3 
REMARK    2  A    between atoms: C_8  and  S_9 
REMARK    3  A    between atoms: S_9  and  C_10 
REMARK    4  A    between atoms: C_13  and  N_14 
REMARK    5  A    between atoms: N_19  and  C_20 
REMARK    6  A    between atoms: C_20  and  C_21 
REMARK    7  A    between atoms: C_21  and  N_22 
REMARK    8  A    between atoms: N_22  and  C_23 
REMARK    9  A    between atoms: C_23  and  C_24 
ROOT
HETATM    1  C   UNL     1       4.071   7.561  20.209  0.00  0.00     0.176 A 
HETATM    2  N   UNL     1       3.311   8.540  19.745  0.00  0.00    -0.217 NA
HETATM    3  C   UNL     1       2.834   8.081  18.529  0.00  0.00     0.145 A 
HETATM    4  C   UNL     1       2.024   8.650  17.526  0.00  0.00     0.135 A 
HETATM    5  N   UNL     1       1.791   7.938  16.398  0.00  0.00    -0.228 NA
HETATM    6  C   UNL     1       2.316   6.701  16.295  0.00  0.00     0.237 A 
HETATM    7  N   UNL     1       3.069   6.047  17.196  0.00  0.00    -0.222 NA
HETATM    8  C   UNL     1       3.299   6.801  18.281  0.00  0.00     0.165 A 
HETATM    9  N   UNL     1       4.069   6.473  19.369  0.00  0.00    -0.307 N 
ENDROOT
BRANCH   1  10
HETATM   10  S   UNL     1       5.180   7.738  21.537  0.00  0.00    -0.051 SA
BRANCH  10  11
HETATM   11  C   UNL     1       4.255   7.452  23.044  0.00  0.00     0.027 A 
HETATM   12  C   UNL     1       3.652   8.507  23.770  0.00  0.00     0.023 A 
HETATM   13  C   UNL     1       2.810   8.246  24.866  0.00  0.00     0.022 A 
HETATM   14  I   UNL     1       3.899  10.550  23.302  0.00  0.00    -0.043 I 
HETATM   15  C   UNL     1       2.535   6.935  25.234  0.00  0.00     0.038 A 
HETATM   16  C   UNL     1       3.100   5.886  24.519  0.00  0.00     0.069 A 
HETATM   17  C   UNL     1       3.994   6.149  23.471  0.00  0.00     0.057 A 
BRANCH  16  18
HETATM   18  O   UNL     1       2.725   4.624  24.886  0.00  0.00    -0.356 OA
HETATM   19  C   UNL     1       3.129   3.621  23.950  0.00  0.00     0.210 C 
ENDBRANCH  16  18
ENDBRANCH  10  11
ENDBRANCH   1  10
BRANCH   9  20
HETATM   20  C   UNL     1       4.693   5.176  19.532  0.00  0.00     0.163 C 
BRANCH  20  21
HETATM   21  C   UNL     1       3.781   4.088  20.138  0.00  0.00     0.289 C 
BRANCH  21  22
HETATM   22  N   UNL     1       2.716   3.562  19.281  0.00  0.00     0.085 N 
HETATM   23  H   UNL     1       2.863   2.566  19.116  0.00  0.00     0.315 HD
BRANCH  22  24
HETATM   24  C   UNL     1       1.377   3.812  19.810  0.00  0.00     0.277 C 
BRANCH  24  25
HETATM   25  C   UNL     1       0.268   3.820  18.730  0.00  0.00    -0.025 C 
HETATM   26  C   UNL     1      -0.941   2.956  19.136  0.00  0.00     0.016 C 
HETATM   27  C   UNL     1      -0.214   5.273  18.559  0.00  0.00     0.016 C 
HETATM   28  C   UNL     1       0.832   3.316  17.394  0.00  0.00     0.016 C 
ENDBRANCH  24  25
ENDBRANCH  22  24
ENDBRANCH  21  22
ENDBRANCH  20  21
ENDBRANCH   9  20
BRANCH   4  29
HETATM   29  N   UNL     1       1.471   9.923  17.594  0.00  0.00    -0.285 NA
HETATM   30  H   UNL     1       0.458   9.922  17.609  0.00  0.00     0.125 HD
HETATM   31  H   UNL     1       1.943  10.488  18.292  0.00  0.00     0.125 HD
ENDBRANCH   4  29
TORSDOF 9
ENDMDL
MODEL 5
REMARK VINA RESULT:    -6.325      2.451      3.281
REMARK INTER + INTRA:         -10.864
REMARK INTER:                  -9.778
REMARK INTRA:                  -1.085
REMARK UNBOUND:                -1.396
REMARK  9 active torsions:
REMARK  status: ('A' for Active; 'I' for Inactive)
REMARK    1  A    between atoms: O_2  and  C_3 
REMARK    2  A    between atoms: C_8  and  S_9 
REMARK    3  A    between atoms: S_9  and  C_10 
REMARK    4  A    between atoms: C_13  and  N_14 
REMARK    5  A    between atoms: N_19  and  C_20 
REMARK    6  A    between atoms: C_20  and  C_21 
REMARK    7  A    between atoms: C_21  and  N_22 
REMARK    8  A    between atoms: N_22  and  C_23 
REMARK    9  A    between atoms: C_23  and  C_24 
ROOT
HETATM    1  C   UNL     1       0.016   9.324  26.591  0.00  0.00     0.176 A 
HETATM    2  N   UNL     1      -1.276   9.545  26.408  0.00  0.00    -0.217 NA
HETATM    3  C   UNL     1      -1.344  10.416  25.334  0.00  0.00     0.145 A 
HETATM    4  C   UNL     1      -2.408  11.065  24.677  0.00  0.00     0.135 A 
HETATM    5  N   UNL     1      -2.122  11.929  23.674  0.00  0.00    -0.228 NA
HETATM    6  C   UNL     1      -0.833  12.105  23.323  0.00  0.00     0.237 A 
HETATM    7  N   UNL     1       0.254  11.517  23.851  0.00  0.00    -0.222 NA
HETATM    8  C   UNL     1      -0.074  10.697  24.860  0.00  0.00     0.165 A 
HETATM    9  N   UNL     1       0.782   9.979  25.656  0.00  0.00    -0.307 N 
ENDROOT
BRANCH   1  10
HETATM   10  S   UNL     1       0.683   8.573  28.012  0.00  0.00    -0.051 SA
BRANCH  10  11
HETATM   11  C   UNL     1       0.875   6.830  27.651  0.00  0.00     0.027 A 
HETATM   12  C   UNL     1       2.090   6.141  27.883  0.00  0.00     0.023 A 
HETATM   13  C   UNL     1       2.175   4.746  27.730  0.00  0.00     0.022 A 
HETATM   14  I   UNL     1       3.876   7.081  28.501  0.00  0.00    -0.043 I 
HETATM   15  C   UNL     1       1.048   4.016  27.374  0.00  0.00     0.038 A 
HETATM   16  C   UNL     1      -0.160   4.672  27.164  0.00  0.00     0.069 A 
HETATM   17  C   UNL     1      -0.225   6.070  27.249  0.00  0.00     0.057 A 
BRANCH  16  18
HETATM   18  O   UNL     1      -1.244   3.886  26.894  0.00  0.00    -0.356 OA
HETATM   19  C   UNL     1      -0.903   2.519  26.650  0.00  0.00     0.210 C 
ENDBRANCH  16  18
ENDBRANCH  10  11
ENDBRANCH   1  10
BRANCH   9  20
HETATM   20  C   UNL     1       2.215   9.947  25.445  0.00  0.00     0.163 C 
BRANCH  20  21
HETATM   21  C   UNL     1       2.740   8.677  24.743  0.00  0.00     0.289 C 
BRANCH  21  22
HETATM   22  N   UNL     1       4.125   8.704  24.270  0.00  0.00     0.085 N 
HETATM   23  H   UNL     1       4.725   9.130  24.977  0.00  0.00     0.315 HD
BRANCH  22  24
HETATM   24  C   UNL     1       4.626   7.387  23.883  0.00  0.00     0.277 C 
BRANCH  24  25
HETATM   25  C   UNL     1       4.657   7.153  22.353  0.00  0.00    -0.025 C 
HETATM   26  C   UNL     1       4.560   8.474  21.564  0.00  0.00     0.016 C 
HETATM   27  C   UNL     1       5.999   6.482  22.005  0.00  0.00     0.016 C 
HETATM   28  C   UNL     1       3.507   6.224  21.939  0.00  0.00     0.016 C 
ENDBRANCH  24  25
ENDBRANCH  22  24
ENDBRANCH  21  22
ENDBRANCH  20  21
ENDBRANCH   9  20
BRANCH   4  29
HETATM   29  N   UNL     1      -3.748  10.913  25.015  0.00  0.00    -0.285 NA
HETATM   30  H   UNL     1      -4.125  10.007  24.766  0.00  0.00     0.125 HD
HETATM   31  H   UNL     1      -3.925  11.244  25.957  0.00  0.00     0.125 HD
ENDBRANCH   4  29
TORSDOF 9
ENDMDL
MODEL 6
REMARK VINA RESULT:    -6.210      2.585      6.443
REMARK INTER + INTRA:         -10.692
REMARK INTER:                  -9.553
REMARK INTRA:                  -1.139
REMARK UNBOUND:                -1.396
REMARK  9 active torsions:
REMARK  status: ('A' for Active; 'I' for Inactive)
REMARK    1  A    between atoms: O_2  and  C_3 
REMARK    2  A    between atoms: C_8  and  S_9 
REMARK    3  A    between atoms: S_9  and  C_10 
REMARK    4  A    between atoms: C_13  and  N_14 
REMARK    5  A    between atoms: N_19  and  C_20 
REMARK    6  A    between atoms: C_20  and  C_21 
REMARK    7  A    between atoms: C_21  and  N_22 
REMARK    8  A    between atoms: N_22  and  C_23 
REMARK    9  A    between atoms: C_23  and  C_24 
ROOT
HETATM    1  C   UNL     1       0.937  10.040  25.619  0.00  0.00     0.176 A 
HETATM    2  N   UNL     1       0.873  10.836  24.565  0.00  0.00    -0.217 NA
HETATM    3  C   UNL     1      -0.479  11.053  24.358  0.00  0.00     0.145 A 
HETATM    4  C   UNL     1      -1.211  11.761  23.384  0.00  0.00     0.135 A 
HETATM    5  N   UNL     1      -2.564  11.720  23.431  0.00  0.00    -0.228 NA
HETATM    6  C   UNL     1      -3.154  11.030  24.427  0.00  0.00     0.237 A 
HETATM    7  N   UNL     1      -2.562  10.350  25.424  0.00  0.00    -0.222 NA
HETATM    8  C   UNL     1      -1.225  10.393  25.319  0.00  0.00     0.165 A 
HETATM    9  N   UNL     1      -0.310   9.768  26.129  0.00  0.00    -0.307 N 
ENDROOT
BRANCH   1  10
HETATM   10  S   UNL     1       2.372   9.185  26.107  0.00  0.00    -0.051 SA
BRANCH  10  11
HETATM   11  C   UNL     1       2.997   8.330  24.663  0.00  0.00     0.027 A 
HETATM   12  C   UNL     1       2.830   6.936  24.481  0.00  0.00     0.023 A 
HETATM   13  C   UNL     1       3.199   6.310  23.277  0.00  0.00     0.022 A 
HETATM   14  I   UNL     1       2.001   5.651  25.935  0.00  0.00    -0.043 I 
HETATM   15  C   UNL     1       3.709   7.067  22.230  0.00  0.00     0.038 A 
HETATM   16  C   UNL     1       3.860   8.441  22.381  0.00  0.00     0.069 A 
HETATM   17  C   UNL     1       3.557   9.051  23.607  0.00  0.00     0.057 A 
BRANCH  16  18
HETATM   18  O   UNL     1       4.293   9.133  21.286  0.00  0.00    -0.356 OA
HETATM   19  C   UNL     1       5.046   8.331  20.373  0.00  0.00     0.210 C 
ENDBRANCH  16  18
ENDBRANCH  10  11
ENDBRANCH   1  10
BRANCH   9  20
HETATM   20  C   UNL     1      -0.686   9.016  27.309  0.00  0.00     0.163 C 
BRANCH  20  21
HETATM   21  C   UNL     1      -0.727   9.835  28.616  0.00  0.00     0.289 C 
BRANCH  21  22
HETATM   22  N   UNL     1      -0.221   9.182  29.825  0.00  0.00     0.085 N 
HETATM   23  H   UNL     1      -0.968   8.647  30.268  0.00  0.00     0.315 HD
BRANCH  22  24
HETATM   24  C   UNL     1       0.948   8.341  29.576  0.00  0.00     0.277 C 
BRANCH  24  25
HETATM   25  C   UNL     1       0.905   6.977  30.306  0.00  0.00    -0.025 C 
HETATM   26  C   UNL     1       2.317   6.441  30.614  0.00  0.00     0.016 C 
HETATM   27  C   UNL     1       0.164   7.179  31.641  0.00  0.00     0.016 C 
HETATM   28  C   UNL     1       0.142   5.951  29.457  0.00  0.00     0.016 C 
ENDBRANCH  24  25
ENDBRANCH  22  24
ENDBRANCH  21  22
ENDBRANCH  20  21
ENDBRANCH   9  20
BRANCH   4  29
HETATM   29  N   UNL     1      -0.638  12.478  22.340  0.00  0.00    -0.285 NA
HETATM   30  H   UNL     1       0.065  11.955  21.832  0.00  0.00     0.125 HD
HETATM   31  H   UNL     1      -1.348  12.952  21.792  0.00  0.00     0.125 HD
ENDBRANCH   4  29
TORSDOF 9
ENDMDL
MODEL 7
REMARK VINA RESULT:    -6.128      3.260      6.708
REMARK INTER + INTRA:         -10.569
REMARK INTER:                  -9.080
REMARK INTRA:                  -1.489
REMARK UNBOUND:                -1.396
REMARK  9 active torsions:
REMARK  status: ('A' for Active; 'I' for Inactive)
REMARK    1  A    between atoms: O_2  and  C_3 
REMARK    2  A    between atoms: C_8  and  S_9 
REMARK    3  A    between atoms: S_9  and  C_10 
REMARK    4  A    between atoms: C_13  and  N_14 
REMARK    5  A    between atoms: N_19  and  C_20 
REMARK    6  A    between atoms: C_20  and  C_21 
REMARK    7  A    between atoms: C_21  and  N_22 
REMARK    8  A    between atoms: N_22  and  C_23 
REMARK    9  A    between atoms: C_23  and  C_24 
ROOT
HETATM    1  C   UNL     1       2.497   5.945  27.076  0.00  0.00     0.176 A 
HETATM    2  N   UNL     1       3.432   6.319  27.934  0.00  0.00    -0.217 NA
HETATM    3  C   UNL     1       2.786   7.151  28.832  0.00  0.00     0.145 A 
HETATM    4  C   UNL     1       3.218   7.905  29.942  0.00  0.00     0.135 A 
HETATM    5  N   UNL     1       2.320   8.687  30.585  0.00  0.00    -0.228 NA
HETATM    6  C   UNL     1       1.042   8.687  30.158  0.00  0.00     0.237 A 
HETATM    7  N   UNL     1       0.512   7.988  29.140  0.00  0.00    -0.222 NA
HETATM    8  C   UNL     1       1.443   7.253  28.514  0.00  0.00     0.165 A 
HETATM    9  N   UNL     1       1.267   6.463  27.406  0.00  0.00    -0.307 N 
ENDROOT
BRANCH   1  10
HETATM   10  S   UNL     1       2.827   5.170  25.554  0.00  0.00    -0.051 SA
BRANCH  10  11
HETATM   11  C   UNL     1       3.430   6.431  24.435  0.00  0.00     0.027 A 
HETATM   12  C   UNL     1       4.114   6.113  23.237  0.00  0.00     0.023 A 
HETATM   13  C   UNL     1       4.449   7.110  22.304  0.00  0.00     0.022 A 
HETATM   14  I   UNL     1       4.678   4.154  22.689  0.00  0.00    -0.043 I 
HETATM   15  C   UNL     1       4.083   8.430  22.537  0.00  0.00     0.038 A 
HETATM   16  C   UNL     1       3.391   8.759  23.697  0.00  0.00     0.069 A 
HETATM   17  C   UNL     1       3.120   7.774  24.658  0.00  0.00     0.057 A 
BRANCH  16  18
HETATM   18  O   UNL     1       2.995  10.060  23.824  0.00  0.00    -0.356 OA
HETATM   19  C   UNL     1       3.949  10.994  23.312  0.00  0.00     0.210 C 
ENDBRANCH  16  18
ENDBRANCH  10  11
ENDBRANCH   1  10
BRANCH   9  20
HETATM   20  C   UNL     1      -0.026   6.244  26.791  0.00  0.00     0.163 C 
BRANCH  20  21
HETATM   21  C   UNL     1      -0.368   7.208  25.636  0.00  0.00     0.289 C 
BRANCH  21  22
HETATM   22  N   UNL     1      -0.300   8.642  25.926  0.00  0.00     0.085 N 
HETATM   23  H   UNL     1       0.565   8.854  26.423  0.00  0.00     0.315 HD
BRANCH  22  24
HETATM   24  C   UNL     1      -0.435   9.476  24.733  0.00  0.00     0.277 C 
BRANCH  24  25
HETATM   25  C   UNL     1      -0.966  10.901  25.023  0.00  0.00    -0.025 C 
HETATM   26  C   UNL     1      -0.126  11.985  24.321  0.00  0.00     0.016 C 
HETATM   27  C   UNL     1      -2.408  10.986  24.487  0.00  0.00     0.016 C 
HETATM   28  C   UNL     1      -0.975  11.161  26.536  0.00  0.00     0.016 C 
ENDBRANCH  24  25
ENDBRANCH  22  24
ENDBRANCH  21  22
ENDBRANCH  20  21
ENDBRANCH   9  20
BRANCH   4  29
HETATM   29  N   UNL     1       4.528   7.934  30.407  0.00  0.00    -0.285 NA
HETATM   30  H   UNL     1       5.208   7.649  29.713  0.00  0.00     0.125 HD
HETATM   31  H   UNL     1       4.715   8.793  30.912  0.00  0.00     0.125 HD
ENDBRANCH   4  29
TORSDOF 9
ENDMDL
MODEL 8
REMARK VINA RESULT:    -6.094      2.877      6.993
REMARK INTER + INTRA:         -10.518
REMARK INTER:                  -9.122
REMARK INTRA:                  -1.396
REMARK UNBOUND:                -1.396
REMARK  9 active torsions:
REMARK  status: ('A' for Active; 'I' for Inactive)
REMARK    1  A    between atoms: O_2  and  C_3 
REMARK    2  A    between atoms: C_8  and  S_9 
REMARK    3  A    between atoms: S_9  and  C_10 
REMARK    4  A    between atoms: C_13  and  N_14 
REMARK    5  A    between atoms: N_19  and  C_20 
REMARK    6  A    between atoms: C_20  and  C_21 
REMARK    7  A    between atoms: C_21  and  N_22 
REMARK    8  A    between atoms: N_22  and  C_23 
REMARK    9  A    between atoms: C_23  and  C_24 
ROOT
HETATM    1  C   UNL     1       2.871   8.778  24.516  0.00  0.00     0.176 A 
HETATM    2  N   UNL     1       2.783  10.098  24.470  0.00  0.00    -0.217 NA
HETATM    3  C   UNL     1       1.437  10.376  24.633  0.00  0.00     0.145 A 
HETATM    4  C   UNL     1       0.685  11.568  24.631  0.00  0.00     0.135 A 
HETATM    5  N   UNL     1      -0.661  11.487  24.756  0.00  0.00    -0.228 NA
HETATM    6  C   UNL     1      -1.222  10.272  24.910  0.00  0.00     0.237 A 
HETATM    7  N   UNL     1      -0.606   9.078  24.960  0.00  0.00    -0.222 NA
HETATM    8  C   UNL     1       0.720   9.205  24.801  0.00  0.00     0.165 A 
HETATM    9  N   UNL     1       1.647   8.195  24.746  0.00  0.00    -0.307 N 
ENDROOT
BRANCH   1  10
HETATM   10  S   UNL     1       4.279   7.879  24.032  0.00  0.00    -0.051 SA
BRANCH  10  11
HETATM   11  C   UNL     1       4.047   7.410  22.319  0.00  0.00     0.027 A 
HETATM   12  C   UNL     1       3.849   6.065  21.925  0.00  0.00     0.023 A 
HETATM   13  C   UNL     1       3.524   5.737  20.597  0.00  0.00     0.022 A 
HETATM   14  I   UNL     1       3.978   4.422  23.243  0.00  0.00    -0.043 I 
HETATM   15  C   UNL     1       3.364   6.743  19.652  0.00  0.00     0.038 A 
HETATM   16  C   UNL     1       3.531   8.072  20.025  0.00  0.00     0.069 A 
HETATM   17  C   UNL     1       3.923   8.391  21.333  0.00  0.00     0.057 A 
BRANCH  16  18
HETATM   18  O   UNL     1       3.282   9.012  19.066  0.00  0.00    -0.356 OA
HETATM   19  C   UNL     1       2.348   8.575  18.076  0.00  0.00     0.210 C 
ENDBRANCH  16  18
ENDBRANCH  10  11
ENDBRANCH   1  10
BRANCH   9  20
HETATM   20  C   UNL     1       1.308   6.801  24.948  0.00  0.00     0.163 C 
BRANCH  20  21
HETATM   21  C   UNL     1       1.276   6.347  26.422  0.00  0.00     0.289 C 
BRANCH  21  22
HETATM   22  N   UNL     1       0.179   6.854  27.249  0.00  0.00     0.085 N 
HETATM   23  H   UNL     1      -0.636   6.248  27.153  0.00  0.00     0.315 HD
BRANCH  22  24
HETATM   24  C   UNL     1       0.548   7.017  28.654  0.00  0.00     0.277 C 
BRANCH  24  25
HETATM   25  C   UNL     1       0.839   8.482  29.059  0.00  0.00    -0.025 C 
HETATM   26  C   UNL     1      -0.196   9.461  28.470  0.00  0.00     0.016 C 
HETATM   27  C   UNL     1       0.767   8.571  30.595  0.00  0.00     0.016 C 
HETATM   28  C   UNL     1       2.246   8.886  28.597  0.00  0.00     0.016 C 
ENDBRANCH  24  25
ENDBRANCH  22  24
ENDBRANCH  21  22
ENDBRANCH  20  21
ENDBRANCH   9  20
BRANCH   4  29
HETATM   29  N   UNL     1       1.228  12.837  24.470  0.00  0.00    -0.285 NA
HETATM   30  H   UNL     1       0.664  13.572  24.880  0.00  0.00     0.125 HD
HETATM   31  H   UNL     1       2.218  12.839  24.688  0.00  0.00     0.125 HD
ENDBRANCH   4  29
TORSDOF 9
ENDMDL
MODEL 9
REMARK VINA RESULT:    -5.996      1.661      2.118
REMARK INTER + INTRA:         -10.371
REMARK INTER:                  -9.354
REMARK INTRA:                  -1.017
REMARK UNBOUND:                -1.396
REMARK  9 active torsions:
REMARK  status: ('A' for Active; 'I' for Inactive)
REMARK    1  A    between atoms: O_2  and  C_3 
REMARK    2  A    between atoms: C_8  and  S_9 
REMARK    3  A    between atoms: S_9  and  C_10 
REMARK    4  A    between atoms: C_13  and  N_14 
REMARK    5  A    between atoms: N_19  and  C_20 
REMARK    6  A    between atoms: C_20  and  C_21 
REMARK    7  A    between atoms: C_21  and  N_22 
REMARK    8  A    between atoms: N_22  and  C_23 
REMARK    9  A    between atoms: C_23  and  C_24 
ROOT
HETATM    1  C   UNL     1       0.616   7.969  25.508  0.00  0.00     0.176 A 
HETATM    2  N   UNL     1      -0.565   8.562  25.555  0.00  0.00    -0.217 NA
HETATM    3  C   UNL     1      -0.337   9.857  25.124  0.00  0.00     0.145 A 
HETATM    4  C   UNL     1      -1.158  10.995  24.989  0.00  0.00     0.135 A 
HETATM    5  N   UNL     1      -0.594  12.159  24.590  0.00  0.00    -0.228 NA
HETATM    6  C   UNL     1       0.724  12.173  24.305  0.00  0.00     0.237 A 
HETATM    7  N   UNL     1       1.592  11.149  24.364  0.00  0.00    -0.222 NA
HETATM    8  C   UNL     1       0.997  10.027  24.794  0.00  0.00     0.165 A 
HETATM    9  N   UNL     1       1.589   8.811  25.023  0.00  0.00    -0.307 N 
ENDROOT
BRANCH   1  10
HETATM   10  S   UNL     1       0.968   6.438  26.257  0.00  0.00    -0.051 SA
BRANCH  10  11
HETATM   11  C   UNL     1       2.113   6.753  27.597  0.00  0.00     0.027 A 
HETATM   12  C   UNL     1       3.414   6.197  27.624  0.00  0.00     0.023 A 
HETATM   13  C   UNL     1       4.346   6.573  28.608  0.00  0.00     0.022 A 
HETATM   14  I   UNL     1       4.124   4.795  26.215  0.00  0.00    -0.043 I 
HETATM   15  C   UNL     1       4.005   7.527  29.558  0.00  0.00     0.038 A 
HETATM   16  C   UNL     1       2.739   8.102  29.534  0.00  0.00     0.069 A 
HETATM   17  C   UNL     1       1.790   7.674  28.595  0.00  0.00     0.057 A 
BRANCH  16  18
HETATM   18  O   UNL     1       2.498   9.088  30.449  0.00  0.00    -0.356 OA
HETATM   19  C   UNL     1       1.655   8.668  31.524  0.00  0.00     0.210 C 
ENDBRANCH  16  18
ENDBRANCH  10  11
ENDBRANCH   1  10
BRANCH   9  20
HETATM   20  C   UNL     1       2.984   8.546  24.735  0.00  0.00     0.163 C 
BRANCH  20  21
HETATM   21  C   UNL     1       3.238   7.705  23.467  0.00  0.00     0.289 C 
BRANCH  21  22
HETATM   22  N   UNL     1       3.882   8.382  22.339  0.00  0.00     0.085 N 
HETATM   23  H   UNL     1       4.124   9.337  22.601  0.00  0.00     0.315 HD
BRANCH  22  24
HETATM   24  C   UNL     1       5.052   7.666  21.833  0.00  0.00     0.277 C 
BRANCH  24  25
HETATM   25  C   UNL     1       5.159   7.656  20.289  0.00  0.00    -0.025 C 
HETATM   26  C   UNL     1       6.444   8.348  19.794  0.00  0.00     0.016 C 
HETATM   27  C   UNL     1       5.195   6.187  19.828  0.00  0.00     0.016 C 
HETATM   28  C   UNL     1       3.935   8.347  19.672  0.00  0.00     0.016 C 
ENDBRANCH  24  25
ENDBRANCH  22  24
ENDBRANCH  21  22
ENDBRANCH  20  21
ENDBRANCH   9  20
BRANCH   4  29
HETATM   29  N   UNL     1      -2.517  11.019  25.277  0.00  0.00    -0.285 NA
HETATM   30  H   UNL     1      -3.005  10.180  24.989  0.00  0.00     0.125 HD
HETATM   31  H   UNL     1      -2.682  11.347  26.223  0.00  0.00     0.125 HD
ENDBRANCH   4  29
TORSDOF 9
ENDMDL
