MODEL 1
REMARK VINA RESULT:    -8.620      0.000      0.000
REMARK INTER + INTRA:         -11.971
REMARK INTER:                 -11.112
REMARK INTRA:                  -0.859
REMARK UNBOUND:                -1.084
REMARK  5 active torsions:
REMARK  status: ('A' for Active; 'I' for Inactive)
REMARK       I    between atoms: N_5  and  C_6 
REMARK    1  A    between atoms: C_6  and  C_8 
REMARK    2  A    between atoms: C_15  and  C_19 
REMARK    3  A    between atoms: C_16  and  O_18 
REMARK       I    between atoms: C_19  and  N_21 
REMARK    4  A    between atoms: N_21  and  C_23 
REMARK    5  A    between atoms: C_26  and  N_29 
ROOT
HETATM    1  C   UNL     1      13.579  13.173  23.376  0.00  0.00     0.157 A 
HETATM    2  N   UNL     1      14.611  12.472  22.856  0.00  0.00    -0.168 NA
HETATM    3  N   UNL     1      14.054  11.660  21.954  0.00  0.00    -0.277 N 
HETATM    4  H   UNL     1      14.658  11.013  21.459  0.00  0.00     0.189 HD
HETATM    5  C   UNL     1      12.344  12.775  22.747  0.00  0.00     0.029 A 
HETATM    6  C   UNL     1      12.698  11.768  21.859  0.00  0.00     0.065 A 
HETATM    7  C   UNL     1      10.970  13.106  22.844  0.00  0.00     0.036 A 
HETATM    8  C   UNL     1       9.979  12.366  22.137  0.00  0.00     0.066 A 
HETATM    9  C   UNL     1      10.410  11.301  21.338  0.00  0.00     0.083 A 
HETATM   10  C   UNL     1      11.768  11.037  21.116  0.00  0.00     0.069 A 
ENDROOT
BRANCH   8  11
HETATM   11  C   UNL     1       8.558  12.685  22.506  0.00  0.00     0.260 C 
HETATM   12  O   UNL     1       8.094  11.890  23.329  0.00  0.00    -0.267 OA
HETATM   13  N   UNL     1       7.786  13.750  21.962  0.00  0.00    -0.318 N 
HETATM   14  C   UNL     1       8.200  14.581  20.833  0.00  0.00     0.159 C 
BRANCH  13  15
HETATM   15  C   UNL     1       6.463  14.024  22.507  0.00  0.00     0.037 A 
HETATM   16  C   UNL     1       6.144  15.273  23.040  0.00  0.00     0.032 A 
HETATM   17  C   UNL     1       4.895  15.531  23.626  0.00  0.00     0.031 A 
HETATM   18  C   UNL     1       3.890  14.562  23.712  0.00  0.00     0.030 A 
HETATM   19  C   UNL     1       4.175  13.338  23.096  0.00  0.00     0.031 A 
HETATM   20  C   UNL     1       5.433  13.069  22.504  0.00  0.00     0.032 A 
BRANCH  18  21
HETATM   21  N   UNL     1       2.715  14.818  24.386  0.00  0.00    -0.377 N 
HETATM   22  C   UNL     1       1.371  14.517  23.876  0.00  0.00     0.149 C 
HETATM   23  C   UNL     1       0.616  13.619  24.869  0.00  0.00     0.187 C 
HETATM   24  O   UNL     1       0.573  14.202  26.183  0.00  0.00    -0.388 OA
HETATM   25  C   UNL     1       1.908  14.401  26.679  0.00  0.00     0.187 C 
HETATM   26  C   UNL     1       2.724  15.334  25.768  0.00  0.00     0.149 C 
ENDBRANCH  18  21
ENDBRANCH  13  15
ENDBRANCH   8  11
BRANCH   9  27
HETATM   27  O   UNL     1       9.576  10.361  20.799  0.00  0.00    -0.360 OA
HETATM   28  H   UNL     1      10.139   9.653  20.435  0.00  0.00     0.217 HD
ENDBRANCH   9  27
BRANCH   1  29
HETATM   29  C   UNL     1      13.757  14.131  24.501  0.00  0.00     0.275 C 
HETATM   30  N   UNL     1      13.594  13.675  25.810  0.00  0.00    -0.347 N 
HETATM   31  C   UNL     1      13.451  12.295  26.248  0.00  0.00     0.126 C 
HETATM   32  C   UNL     1      13.646  14.578  26.948  0.00  0.00     0.126 C 
HETATM   33  C   UNL     1      13.737  12.329  27.742  0.00  0.00     0.021 C 
HETATM   34  C   UNL     1      13.269  13.719  28.149  0.00  0.00     0.021 C 
HETATM   35  O   UNL     1      14.034  15.313  24.285  0.00  0.00    -0.266 OA
ENDBRANCH   1  29
TORSDOF 5
ENDMDL
MODEL 2
REMARK VINA RESULT:    -8.550      2.667      5.229
REMARK INTER + INTRA:         -11.882
REMARK INTER:                 -10.945
REMARK INTRA:                  -0.937
REMARK UNBOUND:                -1.084
REMARK  5 active torsions:
REMARK  status: ('A' for Active; 'I' for Inactive)
REMARK       I    between atoms: N_5  and  C_6 
REMARK    1  A    between atoms: C_6  and  C_8 
REMARK    2  A    between atoms: C_15  and  C_19 
REMARK    3  A    between atoms: C_16  and  O_18 
REMARK       I    between atoms: C_19  and  N_21 
REMARK    4  A    between atoms: N_21  and  C_23 
REMARK    5  A    between atoms: C_26  and  N_29 
ROOT
HETATM    1  C   UNL     1      10.725  12.991  23.267  0.00  0.00     0.157 A 
HETATM    2  N   UNL     1      11.866  13.523  23.760  0.00  0.00    -0.168 NA
HETATM    3  N   UNL     1      11.508  14.094  24.913  0.00  0.00    -0.277 N 
HETATM    4  H   UNL     1      12.220  14.588  25.441  0.00  0.00     0.189 HD
HETATM    5  C   UNL     1       9.632  13.240  24.174  0.00  0.00     0.029 A 
HETATM    6  C   UNL     1      10.181  13.988  25.207  0.00  0.00     0.065 A 
HETATM    7  C   UNL     1       8.243  12.966  24.233  0.00  0.00     0.036 A 
HETATM    8  C   UNL     1       7.423  13.523  25.257  0.00  0.00     0.066 A 
HETATM    9  C   UNL     1       8.037  14.349  26.205  0.00  0.00     0.083 A 
HETATM   10  C   UNL     1       9.426  14.526  26.252  0.00  0.00     0.069 A 
ENDROOT
BRANCH   8  11
HETATM   11  C   UNL     1       5.945  13.330  25.067  0.00  0.00     0.260 C 
HETATM   12  O   UNL     1       5.562  12.218  25.443  0.00  0.00    -0.267 OA
HETATM   13  N   UNL     1       5.058  14.281  24.488  0.00  0.00    -0.318 N 
HETATM   14  C   UNL     1       5.482  15.514  23.828  0.00  0.00     0.159 C 
BRANCH  13  15
HETATM   15  C   UNL     1       3.626  14.014  24.485  0.00  0.00     0.037 A 
HETATM   16  C   UNL     1       2.827  14.339  25.581  0.00  0.00     0.032 A 
HETATM   17  C   UNL     1       1.459  14.028  25.618  0.00  0.00     0.031 A 
HETATM   18  C   UNL     1       0.805  13.381  24.565  0.00  0.00     0.030 A 
HETATM   19  C   UNL     1       1.585  13.138  23.428  0.00  0.00     0.031 A 
HETATM   20  C   UNL     1       2.967  13.446  23.384  0.00  0.00     0.032 A 
BRANCH  18  21
HETATM   21  N   UNL     1      -0.514  13.000  24.676  0.00  0.00    -0.377 N 
HETATM   22  C   UNL     1      -1.509  13.089  23.600  0.00  0.00     0.149 C 
HETATM   23  C   UNL     1      -2.137  11.711  23.343  0.00  0.00     0.187 C 
HETATM   24  O   UNL     1      -2.696  11.150  24.544  0.00  0.00    -0.388 OA
HETATM   25  C   UNL     1      -1.671  11.000  25.541  0.00  0.00     0.187 C 
HETATM   26  C   UNL     1      -1.019  12.346  25.899  0.00  0.00     0.149 C 
ENDBRANCH  18  21
ENDBRANCH  13  15
ENDBRANCH   8  11
BRANCH   9  27
HETATM   27  O   UNL     1       7.356  15.138  27.090  0.00  0.00    -0.360 OA
HETATM   28  H   UNL     1       6.889  15.817  26.568  0.00  0.00     0.217 HD
ENDBRANCH   9  27
BRANCH   1  29
HETATM   29  C   UNL     1      10.666  12.340  21.930  0.00  0.00     0.275 C 
HETATM   30  N   UNL     1       9.812  12.867  20.959  0.00  0.00    -0.347 N 
HETATM   31  C   UNL     1       9.084  14.126  21.019  0.00  0.00     0.126 C 
HETATM   32  C   UNL     1       9.624  12.218  19.672  0.00  0.00     0.126 C 
HETATM   33  C   UNL     1       8.676  14.407  19.580  0.00  0.00     0.021 C 
HETATM   34  C   UNL     1       8.517  13.014  18.990  0.00  0.00     0.021 C 
HETATM   35  O   UNL     1      11.349  11.344  21.683  0.00  0.00    -0.266 OA
ENDBRANCH   1  29
TORSDOF 5
ENDMDL
MODEL 3
REMARK VINA RESULT:    -8.379      1.621      2.235
REMARK INTER + INTRA:         -11.667
REMARK INTER:                 -11.323
REMARK INTRA:                  -0.344
REMARK UNBOUND:                -1.084
REMARK  5 active torsions:
REMARK  status: ('A' for Active; 'I' for Inactive)
REMARK       I    between atoms: N_5  and  C_6 
REMARK    1  A    between atoms: C_6  and  C_8 
REMARK    2  A    between atoms: C_15  and  C_19 
REMARK    3  A    between atoms: C_16  and  O_18 
REMARK       I    between atoms: C_19  and  N_21 
REMARK    4  A    between atoms: N_21  and  C_23 
REMARK    5  A    between atoms: C_26  and  N_29 
ROOT
HETATM    1  C   UNL     1      12.581  11.507  22.143  0.00  0.00     0.157 A 
HETATM    2  N   UNL     1      13.501  11.196  21.204  0.00  0.00    -0.168 NA
HETATM    3  N   UNL     1      12.920  11.496  20.040  0.00  0.00    -0.277 N 
HETATM    4  H   UNL     1      13.435  11.308  19.187  0.00  0.00     0.189 HD
HETATM    5  C   UNL     1      11.394  12.034  21.516  0.00  0.00     0.029 A 
HETATM    6  C   UNL     1      11.648  11.974  20.152  0.00  0.00     0.065 A 
HETATM    7  C   UNL     1      10.124  12.513  21.923  0.00  0.00     0.036 A 
HETATM    8  C   UNL     1       9.111  12.823  20.970  0.00  0.00     0.066 A 
HETATM    9  C   UNL     1       9.414  12.642  19.616  0.00  0.00     0.083 A 
HETATM   10  C   UNL     1      10.700  12.301  19.179  0.00  0.00     0.069 A 
ENDROOT
BRANCH   8  11
HETATM   11  C   UNL     1       7.754  13.105  21.550  0.00  0.00     0.260 C 
HETATM   12  O   UNL     1       6.968  12.166  21.393  0.00  0.00    -0.267 OA
HETATM   13  N   UNL     1       7.365  14.320  22.182  0.00  0.00    -0.318 N 
HETATM   14  C   UNL     1       8.172  15.538  22.202  0.00  0.00     0.159 C 
BRANCH  13  15
HETATM   15  C   UNL     1       6.057  14.409  22.816  0.00  0.00     0.037 A 
HETATM   16  C   UNL     1       5.271  13.274  23.018  0.00  0.00     0.032 A 
HETATM   17  C   UNL     1       3.982  13.354  23.567  0.00  0.00     0.031 A 
HETATM   18  C   UNL     1       3.402  14.567  23.953  0.00  0.00     0.030 A 
HETATM   19  C   UNL     1       4.224  15.694  23.838  0.00  0.00     0.031 A 
HETATM   20  C   UNL     1       5.525  15.622  23.282  0.00  0.00     0.032 A 
BRANCH  18  21
HETATM   21  N   UNL     1       2.097  14.621  24.394  0.00  0.00    -0.377 N 
HETATM   22  C   UNL     1       0.914  14.536  23.527  0.00  0.00     0.149 C 
HETATM   23  C   UNL     1       0.004  13.385  23.984  0.00  0.00     0.187 C 
HETATM   24  O   UNL     1      -0.354  13.510  25.371  0.00  0.00    -0.388 OA
HETATM   25  C   UNL     1       0.828  13.503  26.189  0.00  0.00     0.187 C 
HETATM   26  C   UNL     1       1.778  14.659  25.834  0.00  0.00     0.149 C 
ENDBRANCH  18  21
ENDBRANCH  13  15
ENDBRANCH   8  11
BRANCH   9  27
HETATM   27  O   UNL     1       8.484  12.664  18.614  0.00  0.00    -0.360 OA
HETATM   28  H   UNL     1       8.639  13.476  18.097  0.00  0.00     0.217 HD
ENDBRANCH   9  27
BRANCH   1  29
HETATM   29  C   UNL     1      12.796  11.228  23.589  0.00  0.00     0.275 C 
HETATM   30  N   UNL     1      13.277  12.249  24.410  0.00  0.00    -0.347 N 
HETATM   31  C   UNL     1      13.426  13.655  24.069  0.00  0.00     0.126 C 
HETATM   32  C   UNL     1      13.612  12.014  25.806  0.00  0.00     0.126 C 
HETATM   33  C   UNL     1      13.566  14.367  25.406  0.00  0.00     0.021 C 
HETATM   34  C   UNL     1      14.236  13.321  26.284  0.00  0.00     0.021 C 
HETATM   35  O   UNL     1      12.565  10.110  24.056  0.00  0.00    -0.266 OA
ENDBRANCH   1  29
TORSDOF 5
ENDMDL
MODEL 4
REMARK VINA RESULT:    -8.357      2.407      4.216
REMARK INTER + INTRA:         -11.639
REMARK INTER:                 -10.994
REMARK INTRA:                  -0.645
REMARK UNBOUND:                -1.084
REMARK  5 active torsions:
REMARK  status: ('A' for Active; 'I' for Inactive)
REMARK       I    between atoms: N_5  and  C_6 
REMARK    1  A    between atoms: C_6  and  C_8 
REMARK    2  A    between atoms: C_15  and  C_19 
REMARK    3  A    between atoms: C_16  and  O_18 
REMARK       I    between atoms: C_19  and  N_21 
REMARK    4  A    between atoms: N_21  and  C_23 
REMARK    5  A    between atoms: C_26  and  N_29 
ROOT
HETATM    1  C   UNL     1      11.833  13.969  23.389  0.00  0.00     0.157 A 
HETATM    2  N   UNL     1      12.914  14.426  24.058  0.00  0.00    -0.168 NA
HETATM    3  N   UNL     1      12.468  14.702  25.286  0.00  0.00    -0.277 N 
HETATM    4  H   UNL     1      13.122  15.093  25.955  0.00  0.00     0.189 HD
HETATM    5  C   UNL     1      10.684  13.953  24.260  0.00  0.00     0.029 A 
HETATM    6  C   UNL     1      11.136  14.470  25.467  0.00  0.00     0.065 A 
HETATM    7  C   UNL     1       9.312  13.610  24.170  0.00  0.00     0.036 A 
HETATM    8  C   UNL     1       8.411  13.880  25.240  0.00  0.00     0.066 A 
HETATM    9  C   UNL     1       8.928  14.494  26.386  0.00  0.00     0.083 A 
HETATM   10  C   UNL     1      10.300  14.720  26.557  0.00  0.00     0.069 A 
ENDROOT
BRANCH   8  11
HETATM   11  C   UNL     1       6.958  13.667  24.921  0.00  0.00     0.260 C 
HETATM   12  O   UNL     1       6.412  12.882  25.703  0.00  0.00    -0.267 OA
HETATM   13  N   UNL     1       6.261  14.255  23.828  0.00  0.00    -0.318 N 
HETATM   14  C   UNL     1       6.897  15.010  22.750  0.00  0.00     0.159 C 
BRANCH  13  15
HETATM   15  C   UNL     1       4.821  14.065  23.714  0.00  0.00     0.037 A 
HETATM   16  C   UNL     1       3.928  15.081  24.055  0.00  0.00     0.032 A 
HETATM   17  C   UNL     1       2.538  14.890  24.012  0.00  0.00     0.031 A 
HETATM   18  C   UNL     1       1.957  13.679  23.621  0.00  0.00     0.030 A 
HETATM   19  C   UNL     1       2.849  12.691  23.190  0.00  0.00     0.031 A 
HETATM   20  C   UNL     1       4.253  12.875  23.233  0.00  0.00     0.032 A 
BRANCH  18  21
HETATM   21  N   UNL     1       0.592  13.494  23.688  0.00  0.00    -0.377 N 
HETATM   22  C   UNL     1      -0.234  12.935  22.610  0.00  0.00     0.149 C 
HETATM   23  C   UNL     1      -1.015  11.713  23.120  0.00  0.00     0.187 C 
HETATM   24  O   UNL     1      -1.796  12.032  24.285  0.00  0.00    -0.388 OA
HETATM   25  C   UNL     1      -0.939  12.493  25.343  0.00  0.00     0.187 C 
HETATM   26  C   UNL     1      -0.152  13.751  24.936  0.00  0.00     0.149 C 
ENDBRANCH  18  21
ENDBRANCH  13  15
ENDBRANCH   8  11
BRANCH   9  27
HETATM   27  O   UNL     1       8.158  15.028  27.382  0.00  0.00    -0.360 OA
HETATM   28  H   UNL     1       8.729  15.120  28.167  0.00  0.00     0.217 HD
ENDBRANCH   9  27
BRANCH   1  29
HETATM   29  C   UNL     1      11.878  13.639  21.938  0.00  0.00     0.275 C 
HETATM   30  N   UNL     1      12.494  12.453  21.533  0.00  0.00    -0.347 N 
HETATM   31  C   UNL     1      12.950  11.365  22.384  0.00  0.00     0.126 C 
HETATM   32  C   UNL     1      12.668  12.123  20.128  0.00  0.00     0.126 C 
HETATM   33  C   UNL     1      13.132  10.184  21.441  0.00  0.00     0.021 C 
HETATM   34  C   UNL     1      13.508  10.850  20.126  0.00  0.00     0.021 C 
HETATM   35  O   UNL     1      11.390  14.403  21.103  0.00  0.00    -0.266 OA
ENDBRANCH   1  29
TORSDOF 5
ENDMDL
MODEL 5
REMARK VINA RESULT:    -8.269      2.412      4.347
REMARK INTER + INTRA:         -11.528
REMARK INTER:                 -10.458
REMARK INTRA:                  -1.070
REMARK UNBOUND:                -1.084
REMARK  5 active torsions:
REMARK  status: ('A' for Active; 'I' for Inactive)
REMARK       I    between atoms: N_5  and  C_6 
REMARK    1  A    between atoms: C_6  and  C_8 
REMARK    2  A    between atoms: C_15  and  C_19 
REMARK    3  A    between atoms: C_16  and  O_18 
REMARK       I    between atoms: C_19  and  N_21 
REMARK    4  A    between atoms: N_21  and  C_23 
REMARK    5  A    between atoms: C_26  and  N_29 
ROOT
HETATM    1  C   UNL     1      12.222  12.214  24.607  0.00  0.00     0.157 A 
HETATM    2  N   UNL     1      13.355  12.718  25.144  0.00  0.00    -0.168 NA
HETATM    3  N   UNL     1      12.940  13.578  26.076  0.00  0.00    -0.277 N 
HETATM    4  H   UNL     1      13.641  14.100  26.590  0.00  0.00     0.189 HD
HETATM    5  C   UNL     1      11.069  12.787  25.256  0.00  0.00     0.029 A 
HETATM    6  C   UNL     1      11.584  13.691  26.176  0.00  0.00     0.065 A 
HETATM    7  C   UNL     1       9.660  12.690  25.156  0.00  0.00     0.036 A 
HETATM    8  C   UNL     1       8.804  13.558  25.894  0.00  0.00     0.066 A 
HETATM    9  C   UNL     1       9.405  14.510  26.725  0.00  0.00     0.083 A 
HETATM   10  C   UNL     1      10.787  14.539  26.949  0.00  0.00     0.069 A 
ENDROOT
BRANCH   8  11
HETATM   11  C   UNL     1       7.350  13.490  25.522  0.00  0.00     0.260 C 
HETATM   12  O   UNL     1       6.723  12.680  26.212  0.00  0.00    -0.267 OA
HETATM   13  N   UNL     1       6.733  14.230  24.475  0.00  0.00    -0.318 N 
HETATM   14  C   UNL     1       7.456  15.031  23.488  0.00  0.00     0.159 C 
BRANCH  13  15
HETATM   15  C   UNL     1       5.287  14.164  24.309  0.00  0.00     0.037 A 
HETATM   16  C   UNL     1       4.438  15.013  25.019  0.00  0.00     0.032 A 
HETATM   17  C   UNL     1       3.041  14.917  24.918  0.00  0.00     0.031 A 
HETATM   18  C   UNL     1       2.409  13.974  24.101  0.00  0.00     0.030 A 
HETATM   19  C   UNL     1       3.259  13.185  23.318  0.00  0.00     0.031 A 
HETATM   20  C   UNL     1       4.669  13.274  23.416  0.00  0.00     0.032 A 
BRANCH  18  21
HETATM   21  N   UNL     1       1.037  13.840  24.104  0.00  0.00    -0.377 N 
HETATM   22  C   UNL     1       0.217  13.558  22.919  0.00  0.00     0.149 C 
HETATM   23  C   UNL     1      -0.625  12.293  23.146  0.00  0.00     0.187 C 
HETATM   24  O   UNL     1      -1.423  12.394  24.338  0.00  0.00    -0.388 OA
HETATM   25  C   UNL     1      -0.576  12.584  25.485  0.00  0.00     0.187 C 
HETATM   26  C   UNL     1       0.271  13.862  25.365  0.00  0.00     0.149 C 
ENDBRANCH  18  21
ENDBRANCH  13  15
ENDBRANCH   8  11
BRANCH   9  27
HETATM   27  O   UNL     1       8.736  15.555  27.301  0.00  0.00    -0.360 OA
HETATM   28  H   UNL     1       8.571  16.211  26.600  0.00  0.00     0.217 HD
ENDBRANCH   9  27
BRANCH   1  29
HETATM   29  C   UNL     1      12.240  11.278  23.449  0.00  0.00     0.275 C 
HETATM   30  N   UNL     1      11.784  11.729  22.209  0.00  0.00    -0.347 N 
HETATM   31  C   UNL     1      11.457  13.097  21.837  0.00  0.00     0.126 C 
HETATM   32  C   UNL     1      11.673  10.839  21.065  0.00  0.00     0.126 C 
HETATM   33  C   UNL     1      11.439  13.093  20.315  0.00  0.00     0.021 C 
HETATM   34  C   UNL     1      11.001  11.675  19.981  0.00  0.00     0.021 C 
HETATM   35  O   UNL     1      12.639  10.119  23.581  0.00  0.00    -0.266 OA
ENDBRANCH   1  29
TORSDOF 5
ENDMDL
MODEL 6
REMARK VINA RESULT:    -8.243      2.374      4.244
REMARK INTER + INTRA:         -11.495
REMARK INTER:                 -10.363
REMARK INTRA:                  -1.132
REMARK UNBOUND:                -1.084
REMARK  5 active torsions:
REMARK  status: ('A' for Active; 'I' for Inactive)
REMARK       I    between atoms: N_5  and  C_6 
REMARK    1  A    between atoms: C_6  and  C_8 
REMARK    2  A    between atoms: C_15  and  C_19 
REMARK    3  A    between atoms: C_16  and  O_18 
REMARK       I    between atoms: C_19  and  N_21 
REMARK    4  A    between atoms: N_21  and  C_23 
REMARK    5  A    between atoms: C_26  and  N_29 
ROOT
HETATM    1  C   UNL     1      13.636  13.853  23.972  0.00  0.00     0.157 A 
HETATM    2  N   UNL     1      14.808  14.148  24.578  0.00  0.00    -0.168 NA
HETATM    3  N   UNL     1      14.489  14.365  25.856  0.00  0.00    -0.277 N 
HETATM    4  H   UNL     1      15.231  14.636  26.492  0.00  0.00     0.189 HD
HETATM    5  C   UNL     1      12.563  13.878  24.935  0.00  0.00     0.029 A 
HETATM    6  C   UNL     1      13.159  14.249  26.133  0.00  0.00     0.065 A 
HETATM    7  C   UNL     1      11.161  13.677  24.938  0.00  0.00     0.036 A 
HETATM    8  C   UNL     1      10.378  13.946  26.099  0.00  0.00     0.066 A 
HETATM    9  C   UNL     1      11.044  14.412  27.238  0.00  0.00     0.083 A 
HETATM   10  C   UNL     1      12.441  14.490  27.306  0.00  0.00     0.069 A 
ENDROOT
BRANCH   8  11
HETATM   11  C   UNL     1       8.891  13.901  25.891  0.00  0.00     0.260 C 
HETATM   12  O   UNL     1       8.357  15.002  26.057  0.00  0.00    -0.267 OA
HETATM   13  N   UNL     1       8.139  12.734  25.576  0.00  0.00    -0.318 N 
HETATM   14  C   UNL     1       8.676  11.375  25.585  0.00  0.00     0.159 C 
BRANCH  13  15
HETATM   15  C   UNL     1       6.720  12.859  25.273  0.00  0.00     0.037 A 
HETATM   16  C   UNL     1       6.279  13.195  23.993  0.00  0.00     0.032 A 
HETATM   17  C   UNL     1       4.919  13.382  23.704  0.00  0.00     0.031 A 
HETATM   18  C   UNL     1       3.917  13.240  24.670  0.00  0.00     0.030 A 
HETATM   19  C   UNL     1       4.349  12.812  25.930  0.00  0.00     0.031 A 
HETATM   20  C   UNL     1       5.720  12.624  26.231  0.00  0.00     0.032 A 
BRANCH  18  21
HETATM   21  N   UNL     1       2.602  13.531  24.375  0.00  0.00    -0.377 N 
HETATM   22  C   UNL     1       1.834  12.930  23.277  0.00  0.00     0.149 C 
HETATM   23  C   UNL     1       0.557  12.271  23.823  0.00  0.00     0.187 C 
HETATM   24  O   UNL     1      -0.234  13.199  24.587  0.00  0.00    -0.388 OA
HETATM   25  C   UNL     1       0.528  13.697  25.700  0.00  0.00     0.187 C 
HETATM   26  C   UNL     1       1.805  14.420  25.242  0.00  0.00     0.149 C 
ENDBRANCH  18  21
ENDBRANCH  13  15
ENDBRANCH   8  11
BRANCH   9  27
HETATM   27  O   UNL     1      10.413  14.935  28.333  0.00  0.00    -0.360 OA
HETATM   28  H   UNL     1       9.731  14.295  28.604  0.00  0.00     0.217 HD
ENDBRANCH   9  27
BRANCH   1  29
HETATM   29  C   UNL     1      13.533  13.639  22.502  0.00  0.00     0.275 C 
HETATM   30  N   UNL     1      13.377  12.339  22.018  0.00  0.00    -0.347 N 
HETATM   31  C   UNL     1      13.103  11.139  22.794  0.00  0.00     0.126 C 
HETATM   32  C   UNL     1      13.379  12.048  20.594  0.00  0.00     0.126 C 
HETATM   33  C   UNL     1      12.610  10.122  21.775  0.00  0.00     0.021 C 
HETATM   34  C   UNL     1      13.342  10.527  20.504  0.00  0.00     0.021 C 
HETATM   35  O   UNL     1      13.597  14.591  21.721  0.00  0.00    -0.266 OA
ENDBRANCH   1  29
TORSDOF 5
ENDMDL
MODEL 7
REMARK VINA RESULT:    -8.186      2.035      2.559
REMARK INTER + INTRA:         -11.423
REMARK INTER:                 -10.993
REMARK INTRA:                  -0.431
REMARK UNBOUND:                -1.084
REMARK  5 active torsions:
REMARK  status: ('A' for Active; 'I' for Inactive)
REMARK       I    between atoms: N_5  and  C_6 
REMARK    1  A    between atoms: C_6  and  C_8 
REMARK    2  A    between atoms: C_15  and  C_19 
REMARK    3  A    between atoms: C_16  and  O_18 
REMARK       I    between atoms: C_19  and  N_21 
REMARK    4  A    between atoms: N_21  and  C_23 
REMARK    5  A    between atoms: C_26  and  N_29 
ROOT
HETATM    1  C   UNL     1      12.710  13.096  23.425  0.00  0.00     0.157 A 
HETATM    2  N   UNL     1      13.744  13.334  22.589  0.00  0.00    -0.168 NA
HETATM    3  N   UNL     1      13.227  14.073  21.604  0.00  0.00    -0.277 N 
HETATM    4  H   UNL     1      13.837  14.342  20.840  0.00  0.00     0.189 HD
HETATM    5  C   UNL     1      11.516  13.735  22.929  0.00  0.00     0.029 A 
HETATM    6  C   UNL     1      11.893  14.325  21.729  0.00  0.00     0.065 A 
HETATM    7  C   UNL     1      10.159  13.854  23.316  0.00  0.00     0.036 A 
HETATM    8  C   UNL     1       9.197  14.464  22.460  0.00  0.00     0.066 A 
HETATM    9  C   UNL     1       9.639  14.946  21.224  0.00  0.00     0.083 A 
HETATM   10  C   UNL     1      10.995  14.966  20.873  0.00  0.00     0.069 A 
ENDROOT
BRANCH   8  11
HETATM   11  C   UNL     1       7.767  14.322  22.902  0.00  0.00     0.260 C 
HETATM   12  O   UNL     1       7.489  15.064  23.849  0.00  0.00    -0.267 OA
HETATM   13  N   UNL     1       6.820  13.418  22.344  0.00  0.00    -0.318 N 
HETATM   14  C   UNL     1       7.145  12.368  21.380  0.00  0.00     0.159 C 
BRANCH  13  15
HETATM   15  C   UNL     1       5.432  13.478  22.781  0.00  0.00     0.037 A 
HETATM   16  C   UNL     1       4.627  12.338  22.795  0.00  0.00     0.032 A 
HETATM   17  C   UNL     1       3.271  12.394  23.151  0.00  0.00     0.031 A 
HETATM   18  C   UNL     1       2.638  13.585  23.521  0.00  0.00     0.030 A 
HETATM   19  C   UNL     1       3.466  14.711  23.597  0.00  0.00     0.031 A 
HETATM   20  C   UNL     1       4.834  14.664  23.237  0.00  0.00     0.032 A 
BRANCH  18  21
HETATM   21  N   UNL     1       1.281  13.621  23.765  0.00  0.00    -0.377 N 
HETATM   22  C   UNL     1       0.240  13.396  22.755  0.00  0.00     0.149 C 
HETATM   23  C   UNL     1      -0.689  12.254  23.196  0.00  0.00     0.187 C 
HETATM   24  O   UNL     1      -1.248  12.499  24.499  0.00  0.00    -0.388 OA
HETATM   25  C   UNL     1      -0.197  12.627  25.471  0.00  0.00     0.187 C 
HETATM   26  C   UNL     1       0.757  13.786  25.134  0.00  0.00     0.149 C 
ENDBRANCH  18  21
ENDBRANCH  13  15
ENDBRANCH   8  11
BRANCH   9  27
HETATM   27  O   UNL     1       8.807  15.333  20.210  0.00  0.00    -0.360 OA
HETATM   28  H   UNL     1       9.340  15.857  19.585  0.00  0.00     0.217 HD
ENDBRANCH   9  27
BRANCH   1  29
HETATM   29  C   UNL     1      12.839  12.212  24.616  0.00  0.00     0.275 C 
HETATM   30  N   UNL     1      13.009  12.794  25.874  0.00  0.00    -0.347 N 
HETATM   31  C   UNL     1      12.886  14.203  26.214  0.00  0.00     0.126 C 
HETATM   32  C   UNL     1      13.249  11.991  27.061  0.00  0.00     0.126 C 
HETATM   33  C   UNL     1      12.741  14.226  27.729  0.00  0.00     0.021 C 
HETATM   34  C   UNL     1      13.531  13.002  28.168  0.00  0.00     0.021 C 
HETATM   35  O   UNL     1      12.807  10.986  24.497  0.00  0.00    -0.266 OA
ENDBRANCH   1  29
TORSDOF 5
ENDMDL
MODEL 8
REMARK VINA RESULT:    -8.081      3.965     11.336
REMARK INTER + INTRA:         -11.291
REMARK INTER:                 -10.354
REMARK INTRA:                  -0.937
REMARK UNBOUND:                -1.084
REMARK  5 active torsions:
REMARK  status: ('A' for Active; 'I' for Inactive)
REMARK       I    between atoms: N_5  and  C_6 
REMARK    1  A    between atoms: C_6  and  C_8 
REMARK    2  A    between atoms: C_15  and  C_19 
REMARK    3  A    between atoms: C_16  and  O_18 
REMARK       I    between atoms: C_19  and  N_21 
REMARK    4  A    between atoms: N_21  and  C_23 
REMARK    5  A    between atoms: C_26  and  N_29 
ROOT
HETATM    1  C   UNL     1      -1.979  11.198  26.291  0.00  0.00     0.157 A 
HETATM    2  N   UNL     1      -3.252  11.180  25.838  0.00  0.00    -0.168 NA
HETATM    3  N   UNL     1      -3.173  11.598  24.573  0.00  0.00    -0.277 N 
HETATM    4  H   UNL     1      -4.035  11.690  24.046  0.00  0.00     0.189 HD
HETATM    5  C   UNL     1      -1.088  11.633  25.243  0.00  0.00     0.029 A 
HETATM    6  C   UNL     1      -1.912  11.914  24.161  0.00  0.00     0.065 A 
HETATM    7  C   UNL     1       0.300  11.865  25.084  0.00  0.00     0.036 A 
HETATM    8  C   UNL     1       0.819  12.461  23.898  0.00  0.00     0.066 A 
HETATM    9  C   UNL     1      -0.090  12.807  22.893  0.00  0.00     0.083 A 
HETATM   10  C   UNL     1      -1.447  12.465  22.965  0.00  0.00     0.069 A 
ENDROOT
BRANCH   8  11
HETATM   11  C   UNL     1       2.270  12.848  23.960  0.00  0.00     0.260 C 
HETATM   12  O   UNL     1       2.989  12.093  23.297  0.00  0.00    -0.267 OA
HETATM   13  N   UNL     1       2.801  13.931  24.715  0.00  0.00    -0.318 N 
HETATM   14  C   UNL     1       2.040  14.717  25.685  0.00  0.00     0.159 C 
BRANCH  13  15
HETATM   15  C   UNL     1       4.211  14.273  24.580  0.00  0.00     0.037 A 
HETATM   16  C   UNL     1       4.656  15.117  23.562  0.00  0.00     0.032 A 
HETATM   17  C   UNL     1       6.018  15.403  23.380  0.00  0.00     0.031 A 
HETATM   18  C   UNL     1       7.016  14.870  24.204  0.00  0.00     0.030 A 
HETATM   19  C   UNL     1       6.562  14.099  25.280  0.00  0.00     0.031 A 
HETATM   20  C   UNL     1       5.190  13.803  25.469  0.00  0.00     0.032 A 
BRANCH  18  21
HETATM   21  N   UNL     1       8.350  15.089  23.934  0.00  0.00    -0.377 N 
HETATM   22  C   UNL     1       9.381  15.345  24.949  0.00  0.00     0.149 C 
HETATM   23  C   UNL     1      10.517  14.318  24.818  0.00  0.00     0.187 C 
HETATM   24  O   UNL     1      11.065  14.300  23.489  0.00  0.00    -0.388 OA
HETATM   25  C   UNL     1      10.041  13.962  22.537  0.00  0.00     0.187 C 
HETATM   26  C   UNL     1       8.880  14.971  22.563  0.00  0.00     0.149 C 
ENDBRANCH  18  21
ENDBRANCH  13  15
ENDBRANCH   8  11
BRANCH   9  27
HETATM   27  O   UNL     1       0.219  13.593  21.818  0.00  0.00    -0.360 OA
HETATM   28  H   UNL     1       1.059  13.259  21.451  0.00  0.00     0.217 HD
ENDBRANCH   9  27
BRANCH   1  29
HETATM   29  C   UNL     1      -1.634  10.892  27.707  0.00  0.00     0.275 C 
HETATM   30  N   UNL     1      -1.216   9.602  28.037  0.00  0.00    -0.347 N 
HETATM   31  C   UNL     1      -0.878   8.526  27.118  0.00  0.00     0.126 C 
HETATM   32  C   UNL     1      -0.969   9.208  29.414  0.00  0.00     0.126 C 
HETATM   33  C   UNL     1      -0.097   7.527  27.960  0.00  0.00     0.021 C 
HETATM   34  C   UNL     1      -0.691   7.710  29.349  0.00  0.00     0.021 C 
HETATM   35  O   UNL     1      -1.728  11.759  28.579  0.00  0.00    -0.266 OA
ENDBRANCH   1  29
TORSDOF 5
ENDMDL
MODEL 9
REMARK VINA RESULT:    -7.926      3.082      4.070
REMARK INTER + INTRA:         -11.095
REMARK INTER:                 -10.012
REMARK INTRA:                  -1.084
REMARK UNBOUND:                -1.084
REMARK  5 active torsions:
REMARK  status: ('A' for Active; 'I' for Inactive)
REMARK       I    between atoms: N_5  and  C_6 
REMARK    1  A    between atoms: C_6  and  C_8 
REMARK    2  A    between atoms: C_15  and  C_19 
REMARK    3  A    between atoms: C_16  and  O_18 
REMARK       I    between atoms: C_19  and  N_21 
REMARK    4  A    between atoms: N_21  and  C_23 
REMARK    5  A    between atoms: C_26  and  N_29 
ROOT
HETATM    1  C   UNL     1      11.334  12.305  22.085  0.00  0.00     0.157 A 
HETATM    2  N   UNL     1      12.481  11.753  22.538  0.00  0.00    -0.168 NA
HETATM    3  N   UNL     1      12.092  10.724  23.294  0.00  0.00    -0.277 N 
HETATM    4  H   UNL     1      12.807  10.180  23.764  0.00  0.00     0.189 HD
HETATM    5  C   UNL     1      10.200  11.564  22.579  0.00  0.00     0.029 A 
HETATM    6  C   UNL     1      10.740  10.571  23.386  0.00  0.00     0.065 A 
HETATM    7  C   UNL     1       8.788  11.631  22.482  0.00  0.00     0.036 A 
HETATM    8  C   UNL     1       7.953  10.780  23.262  0.00  0.00     0.066 A 
HETATM    9  C   UNL     1       8.575   9.872  24.126  0.00  0.00     0.083 A 
HETATM   10  C   UNL     1       9.964   9.690  24.142  0.00  0.00     0.069 A 
ENDROOT
BRANCH   8  11
HETATM   11  C   UNL     1       6.488  11.112  23.223  0.00  0.00     0.260 C 
HETATM   12  O   UNL     1       5.932  10.679  22.208  0.00  0.00    -0.267 OA
HETATM   13  N   UNL     1       5.789  11.871  24.203  0.00  0.00    -0.318 N 
HETATM   14  C   UNL     1       6.428  12.592  25.303  0.00  0.00     0.159 C 
BRANCH  13  15
HETATM   15  C   UNL     1       4.342  12.005  24.105  0.00  0.00     0.037 A 
HETATM   16  C   UNL     1       3.757  13.152  23.568  0.00  0.00     0.032 A 
HETATM   17  C   UNL     1       2.364  13.322  23.528  0.00  0.00     0.031 A 
HETATM   18  C   UNL     1       1.473  12.360  24.014  0.00  0.00     0.030 A 
HETATM   19  C   UNL     1       2.056  11.171  24.468  0.00  0.00     0.031 A 
HETATM   20  C   UNL     1       3.460  10.992  24.514  0.00  0.00     0.032 A 
BRANCH  18  21
HETATM   21  N   UNL     1       0.117  12.604  24.053  0.00  0.00    -0.377 N 
HETATM   22  C   UNL     1      -0.794  12.468  22.909  0.00  0.00     0.149 C 
HETATM   23  C   UNL     1      -1.936  11.500  23.253  0.00  0.00     0.187 C 
HETATM   24  O   UNL     1      -2.630  11.902  24.447  0.00  0.00    -0.388 OA
HETATM   25  C   UNL     1      -1.720  11.938  25.559  0.00  0.00     0.187 C 
HETATM   26  C   UNL     1      -0.565  12.926  25.321  0.00  0.00     0.149 C 
ENDBRANCH  18  21
ENDBRANCH  13  15
ENDBRANCH   8  11
BRANCH   9  27
HETATM   27  O   UNL     1       7.921   9.170  25.100  0.00  0.00    -0.360 OA
HETATM   28  H   UNL     1       8.367   9.366  25.944  0.00  0.00     0.217 HD
ENDBRANCH   9  27
BRANCH   1  29
HETATM   29  C   UNL     1      11.320  13.555  21.276  0.00  0.00     0.275 C 
HETATM   30  N   UNL     1      10.915  14.747  21.880  0.00  0.00    -0.347 N 
HETATM   31  C   UNL     1      10.676  14.976  23.297  0.00  0.00     0.126 C 
HETATM   32  C   UNL     1      10.774  15.979  21.122  0.00  0.00     0.126 C 
HETATM   33  C   UNL     1      10.687  16.491  23.452  0.00  0.00     0.021 C 
HETATM   34  C   UNL     1      10.174  16.978  22.106  0.00  0.00     0.021 C 
HETATM   35  O   UNL     1      11.647  13.540  20.087  0.00  0.00    -0.266 OA
ENDBRANCH   1  29
TORSDOF 5
ENDMDL
