MODEL 1
REMARK VINA RESULT:    -8.962      0.000      0.000
REMARK INTER + INTRA:         -12.822
REMARK INTER:                 -11.285
REMARK INTRA:                  -1.537
REMARK UNBOUND:                -0.979
REMARK  6 active torsions:
REMARK  status: ('A' for Active; 'I' for Inactive)
REMARK    1  A    between atoms: C_5  and  C_6 
REMARK    2  A    between atoms: C_6  and  C_7 
REMARK    3  A    between atoms: C_14  and  C_18 
REMARK    4  A    between atoms: C_15  and  O_17 
REMARK       I    between atoms: C_18  and  N_20 
REMARK    5  A    between atoms: N_20  and  C_22 
REMARK    6  A    between atoms: C_25  and  N_28 
ROOT
HETATM    1  C   UNL     1      12.806  12.021  22.882  0.00  0.00     0.067 A 
HETATM    2  N   UNL     1      14.058  12.509  22.823  0.00  0.00    -0.178 NA
HETATM    3  N   UNL     1      13.935  13.776  23.248  0.00  0.00    -0.277 N 
HETATM    4  H   UNL     1      14.763  14.359  23.259  0.00  0.00     0.189 HD
HETATM    5  C   UNL     1      11.897  12.984  23.410  0.00  0.00     0.019 A 
HETATM    6  C   UNL     1      12.652  14.137  23.558  0.00  0.00     0.065 A 
HETATM    7  C   UNL     1      10.522  13.043  23.714  0.00  0.00     0.035 C 
HETATM    8  C   UNL     1       9.896  14.284  24.009  0.00  0.00     0.066 C 
HETATM    9  C   UNL     1      10.696  15.433  24.023  0.00  0.00     0.083 C 
HETATM   10  C   UNL     1      12.094  15.373  23.902  0.00  0.00     0.069 C 
ENDROOT
BRANCH   8  11
HETATM   11  C   UNL     1       8.396  14.228  24.058  0.00  0.00     0.260 C 
HETATM   12  O   UNL     1       7.973  13.854  25.159  0.00  0.00    -0.267 OA
HETATM   13  N   UNL     1       7.533  14.535  22.974  0.00  0.00    -0.318 N 
HETATM   14  C   UNL     1       7.985  14.825  21.614  0.00  0.00     0.159 C 
BRANCH  13  15
HETATM   15  C   UNL     1       6.091  14.530  23.180  0.00  0.00     0.037 A 
HETATM   16  C   UNL     1       5.416  15.674  23.612  0.00  0.00     0.032 A 
HETATM   17  C   UNL     1       4.041  15.660  23.895  0.00  0.00     0.031 A 
HETATM   18  C   UNL     1       3.259  14.511  23.758  0.00  0.00     0.030 A 
HETATM   19  C   UNL     1       3.912  13.390  23.235  0.00  0.00     0.031 A 
HETATM   20  C   UNL     1       5.299  13.396  22.949  0.00  0.00     0.032 A 
BRANCH  18  21
HETATM   21  N   UNL     1       1.931  14.514  24.138  0.00  0.00    -0.377 N 
HETATM   22  C   UNL     1       0.792  14.605  23.214  0.00  0.00     0.149 C 
HETATM   23  C   UNL     1      -0.123  13.381  23.374  0.00  0.00     0.187 C 
HETATM   24  O   UNL     1      -0.549  13.211  24.737  0.00  0.00    -0.388 OA
HETATM   25  C   UNL     1       0.593  13.034  25.591  0.00  0.00     0.187 C 
HETATM   26  C   UNL     1       1.541  14.243  25.536  0.00  0.00     0.149 C 
ENDBRANCH  18  21
ENDBRANCH  13  15
ENDBRANCH   8  11
BRANCH   9  27
HETATM   27  O   UNL     1      10.198  16.707  24.044  0.00  0.00    -0.360 OA
HETATM   28  H   UNL     1      10.268  17.023  24.963  0.00  0.00     0.217 HD
ENDBRANCH   9  27
BRANCH   1  29
HETATM   29  C   UNL     1      12.548  10.633  22.375  0.00  0.00     0.066 C 
BRANCH  29  30
HETATM   30  C   UNL     1      11.720  10.552  21.079  0.00  0.00    -0.009 C 
HETATM   31  C   UNL     1      11.899  11.818  20.219  0.00  0.00     0.005 C 
HETATM   32  C   UNL     1      10.565  11.999  19.514  0.00  0.00     0.000 C 
HETATM   33  C   UNL     1       9.562  11.614  20.587  0.00  0.00     0.000 C 
HETATM   34  C   UNL     1      10.197  10.415  21.282  0.00  0.00     0.005 C 
ENDBRANCH  29  30
ENDBRANCH   1  29
TORSDOF 6
ENDMDL
MODEL 2
REMARK VINA RESULT:    -8.812      1.769      2.593
REMARK INTER + INTRA:         -12.624
REMARK INTER:                 -11.195
REMARK INTRA:                  -1.429
REMARK UNBOUND:                -0.979
REMARK  6 active torsions:
REMARK  status: ('A' for Active; 'I' for Inactive)
REMARK    1  A    between atoms: C_5  and  C_6 
REMARK    2  A    between atoms: C_6  and  C_7 
REMARK    3  A    between atoms: C_14  and  C_18 
REMARK    4  A    between atoms: C_15  and  O_17 
REMARK       I    between atoms: C_18  and  N_20 
REMARK    5  A    between atoms: N_20  and  C_22 
REMARK    6  A    between atoms: C_25  and  N_28 
ROOT
HETATM    1  C   UNL     1      12.627  11.792  22.158  0.00  0.00     0.067 A 
HETATM    2  N   UNL     1      13.844  12.040  21.643  0.00  0.00    -0.178 NA
HETATM    3  N   UNL     1      13.727  13.263  21.103  0.00  0.00    -0.277 N 
HETATM    4  H   UNL     1      14.528  13.653  20.622  0.00  0.00     0.189 HD
HETATM    5  C   UNL     1      11.752  12.905  21.988  0.00  0.00     0.019 A 
HETATM    6  C   UNL     1      12.477  13.808  21.226  0.00  0.00     0.065 A 
HETATM    7  C   UNL     1      10.422  13.229  22.322  0.00  0.00     0.035 C 
HETATM    8  C   UNL     1       9.792  14.372  21.763  0.00  0.00     0.066 C 
HETATM    9  C   UNL     1      10.545  15.179  20.902  0.00  0.00     0.083 C 
HETATM   10  C   UNL     1      11.919  14.977  20.698  0.00  0.00     0.069 C 
ENDROOT
BRANCH   8  11
HETATM   11  C   UNL     1       8.311  14.447  22.004  0.00  0.00     0.260 C 
HETATM   12  O   UNL     1       7.655  14.301  20.966  0.00  0.00    -0.267 OA
HETATM   13  N   UNL     1       7.702  14.685  23.264  0.00  0.00    -0.318 N 
HETATM   14  C   UNL     1       8.432  15.022  24.485  0.00  0.00     0.159 C 
BRANCH  13  15
HETATM   15  C   UNL     1       6.250  14.641  23.379  0.00  0.00     0.037 A 
HETATM   16  C   UNL     1       5.503  15.803  23.588  0.00  0.00     0.032 A 
HETATM   17  C   UNL     1       4.114  15.764  23.784  0.00  0.00     0.031 A 
HETATM   18  C   UNL     1       3.387  14.572  23.776  0.00  0.00     0.030 A 
HETATM   19  C   UNL     1       4.118  13.418  23.471  0.00  0.00     0.031 A 
HETATM   20  C   UNL     1       5.520  13.449  23.275  0.00  0.00     0.032 A 
BRANCH  18  21
HETATM   21  N   UNL     1       2.037  14.568  24.068  0.00  0.00    -0.377 N 
HETATM   22  C   UNL     1       0.963  14.435  23.075  0.00  0.00     0.149 C 
HETATM   23  C   UNL     1       0.092  13.209  23.390  0.00  0.00     0.187 C 
HETATM   24  O   UNL     1      -0.420  13.254  24.733  0.00  0.00    -0.388 OA
HETATM   25  C   UNL     1       0.667  13.288  25.673  0.00  0.00     0.187 C 
HETATM   26  C   UNL     1       1.564  14.520  25.465  0.00  0.00     0.149 C 
ENDBRANCH  18  21
ENDBRANCH  13  15
ENDBRANCH   8  11
BRANCH   9  27
HETATM   27  O   UNL     1      10.006  16.154  20.105  0.00  0.00    -0.360 OA
HETATM   28  H   UNL     1      10.752  16.605  19.669  0.00  0.00     0.217 HD
ENDBRANCH   9  27
BRANCH   1  29
HETATM   29  C   UNL     1      12.362  10.446  22.764  0.00  0.00     0.066 C 
BRANCH  29  30
HETATM   30  C   UNL     1      12.063  10.454  24.275  0.00  0.00    -0.009 C 
HETATM   31  C   UNL     1      10.548  10.527  24.546  0.00  0.00     0.005 C 
HETATM   32  C   UNL     1      10.424  11.309  25.844  0.00  0.00     0.000 C 
HETATM   33  C   UNL     1      11.499  12.371  25.701  0.00  0.00     0.000 C 
HETATM   34  C   UNL     1      12.670  11.637  25.057  0.00  0.00     0.005 C 
ENDBRANCH  29  30
ENDBRANCH   1  29
TORSDOF 6
ENDMDL
MODEL 3
REMARK VINA RESULT:    -8.561      1.167      1.649
REMARK INTER + INTRA:         -12.292
REMARK INTER:                 -11.172
REMARK INTRA:                  -1.120
REMARK UNBOUND:                -0.979
REMARK  6 active torsions:
REMARK  status: ('A' for Active; 'I' for Inactive)
REMARK    1  A    between atoms: C_5  and  C_6 
REMARK    2  A    between atoms: C_6  and  C_7 
REMARK    3  A    between atoms: C_14  and  C_18 
REMARK    4  A    between atoms: C_15  and  O_17 
REMARK       I    between atoms: C_18  and  N_20 
REMARK    5  A    between atoms: N_20  and  C_22 
REMARK    6  A    between atoms: C_25  and  N_28 
ROOT
HETATM    1  C   UNL     1      12.205  14.212  22.205  0.00  0.00     0.067 A 
HETATM    2  N   UNL     1      13.404  14.587  22.687  0.00  0.00    -0.178 NA
HETATM    3  N   UNL     1      13.169  14.837  23.985  0.00  0.00    -0.277 N 
HETATM    4  H   UNL     1      13.938  15.171  24.554  0.00  0.00     0.189 HD
HETATM    5  C   UNL     1      11.219  14.172  23.234  0.00  0.00     0.019 A 
HETATM    6  C   UNL     1      11.864  14.664  24.358  0.00  0.00     0.065 A 
HETATM    7  C   UNL     1       9.852  13.848  23.337  0.00  0.00     0.035 C 
HETATM    8  C   UNL     1       9.117  14.165  24.511  0.00  0.00     0.066 C 
HETATM    9  C   UNL     1       9.804  14.774  25.568  0.00  0.00     0.083 C 
HETATM   10  C   UNL     1      11.198  14.941  25.557  0.00  0.00     0.069 C 
ENDROOT
BRANCH   8  11
HETATM   11  C   UNL     1       7.630  13.997  24.378  0.00  0.00     0.260 C 
HETATM   12  O   UNL     1       7.159  13.258  25.251  0.00  0.00    -0.267 OA
HETATM   13  N   UNL     1       6.831  14.583  23.362  0.00  0.00    -0.318 N 
HETATM   14  C   UNL     1       7.360  15.328  22.221  0.00  0.00     0.159 C 
BRANCH  13  15
HETATM   15  C   UNL     1       5.384  14.415  23.400  0.00  0.00     0.037 A 
HETATM   16  C   UNL     1       4.544  15.451  23.813  0.00  0.00     0.032 A 
HETATM   17  C   UNL     1       3.157  15.277  23.934  0.00  0.00     0.031 A 
HETATM   18  C   UNL     1       2.525  14.065  23.646  0.00  0.00     0.030 A 
HETATM   19  C   UNL     1       3.351  13.054  23.141  0.00  0.00     0.031 A 
HETATM   20  C   UNL     1       4.752  13.223  23.018  0.00  0.00     0.032 A 
BRANCH  18  21
HETATM   21  N   UNL     1       1.172  13.906  23.870  0.00  0.00    -0.377 N 
HETATM   22  C   UNL     1       0.178  13.598  22.833  0.00  0.00     0.149 C 
HETATM   23  C   UNL     1      -0.553  12.288  23.165  0.00  0.00     0.187 C 
HETATM   24  O   UNL     1      -1.140  12.326  24.477  0.00  0.00    -0.388 OA
HETATM   25  C   UNL     1      -0.119  12.537  25.468  0.00  0.00     0.187 C 
HETATM   26  C   UNL     1       0.630  13.860  25.243  0.00  0.00     0.149 C 
ENDBRANCH  18  21
ENDBRANCH  13  15
ENDBRANCH   8  11
BRANCH   9  27
HETATM   27  O   UNL     1       9.187  15.355  26.643  0.00  0.00    -0.360 OA
HETATM   28  H   UNL     1       9.836  15.961  27.046  0.00  0.00     0.217 HD
ENDBRANCH   9  27
BRANCH   1  29
HETATM   29  C   UNL     1      12.071  13.947  20.735  0.00  0.00     0.066 C 
BRANCH  29  30
HETATM   30  C   UNL     1      11.979  12.460  20.343  0.00  0.00    -0.009 C 
HETATM   31  C   UNL     1      10.513  11.991  20.263  0.00  0.00     0.005 C 
HETATM   32  C   UNL     1      10.550  10.530  20.681  0.00  0.00     0.000 C 
HETATM   33  C   UNL     1      11.576  10.526  21.801  0.00  0.00     0.000 C 
HETATM   34  C   UNL     1      12.663  11.481  21.319  0.00  0.00     0.005 C 
ENDBRANCH  29  30
ENDBRANCH   1  29
TORSDOF 6
ENDMDL
MODEL 4
REMARK VINA RESULT:    -8.510      1.513      1.987
REMARK INTER + INTRA:         -12.225
REMARK INTER:                 -10.966
REMARK INTRA:                  -1.260
REMARK UNBOUND:                -0.979
REMARK  6 active torsions:
REMARK  status: ('A' for Active; 'I' for Inactive)
REMARK    1  A    between atoms: C_5  and  C_6 
REMARK    2  A    between atoms: C_6  and  C_7 
REMARK    3  A    between atoms: C_14  and  C_18 
REMARK    4  A    between atoms: C_15  and  O_17 
REMARK       I    between atoms: C_18  and  N_20 
REMARK    5  A    between atoms: N_20  and  C_22 
REMARK    6  A    between atoms: C_25  and  N_28 
ROOT
HETATM    1  C   UNL     1      11.655  12.743  22.725  0.00  0.00     0.067 A 
HETATM    2  N   UNL     1      12.837  13.208  23.169  0.00  0.00    -0.178 NA
HETATM    3  N   UNL     1      12.526  13.863  24.298  0.00  0.00    -0.277 N 
HETATM    4  H   UNL     1      13.271  14.332  24.800  0.00  0.00     0.189 HD
HETATM    5  C   UNL     1      10.597  13.065  23.625  0.00  0.00     0.019 A 
HETATM    6  C   UNL     1      11.189  13.863  24.592  0.00  0.00     0.065 A 
HETATM    7  C   UNL     1       9.209  12.839  23.704  0.00  0.00     0.035 C 
HETATM    8  C   UNL     1       8.413  13.536  24.652  0.00  0.00     0.066 C 
HETATM    9  C   UNL     1       9.058  14.422  25.522  0.00  0.00     0.083 C 
HETATM   10  C   UNL     1      10.457  14.527  25.582  0.00  0.00     0.069 C 
ENDROOT
BRANCH   8  11
HETATM   11  C   UNL     1       6.932  13.388  24.449  0.00  0.00     0.260 C 
HETATM   12  O   UNL     1       6.464  12.426  25.070  0.00  0.00    -0.267 OA
HETATM   13  N   UNL     1       6.134  14.222  23.622  0.00  0.00    -0.318 N 
HETATM   14  C   UNL     1       6.664  15.267  22.746  0.00  0.00     0.159 C 
BRANCH  13  15
HETATM   15  C   UNL     1       4.692  14.027  23.584  0.00  0.00     0.037 A 
HETATM   16  C   UNL     1       3.814  15.011  24.043  0.00  0.00     0.032 A 
HETATM   17  C   UNL     1       2.427  14.803  24.089  0.00  0.00     0.031 A 
HETATM   18  C   UNL     1       1.832  13.609  23.677  0.00  0.00     0.030 A 
HETATM   19  C   UNL     1       2.699  12.658  23.128  0.00  0.00     0.031 A 
HETATM   20  C   UNL     1       4.100  12.860  23.079  0.00  0.00     0.032 A 
BRANCH  18  21
HETATM   21  N   UNL     1       0.474  13.408  23.829  0.00  0.00    -0.377 N 
HETATM   22  C   UNL     1      -0.409  12.826  22.809  0.00  0.00     0.149 C 
HETATM   23  C   UNL     1      -1.098  11.567  23.356  0.00  0.00     0.187 C 
HETATM   24  O   UNL     1      -1.799  11.837  24.583  0.00  0.00    -0.388 OA
HETATM   25  C   UNL     1      -0.880  12.316  25.579  0.00  0.00     0.187 C 
HETATM   26  C   UNL     1      -0.181  13.612  25.136  0.00  0.00     0.149 C 
ENDBRANCH  18  21
ENDBRANCH  13  15
ENDBRANCH   8  11
BRANCH   9  27
HETATM   27  O   UNL     1       8.402  15.334  26.305  0.00  0.00    -0.360 OA
HETATM   28  H   UNL     1       7.869  15.888  25.705  0.00  0.00     0.217 HD
ENDBRANCH   9  27
BRANCH   1  29
HETATM   29  C   UNL     1      11.611  12.034  21.404  0.00  0.00     0.066 C 
BRANCH  29  30
HETATM   30  C   UNL     1      10.851  12.774  20.287  0.00  0.00    -0.009 C 
HETATM   31  C   UNL     1      10.575  14.240  20.673  0.00  0.00     0.005 C 
HETATM   32  C   UNL     1       9.254  14.576  20.000  0.00  0.00     0.000 C 
HETATM   33  C   UNL     1       8.455  13.297  20.170  0.00  0.00     0.000 C 
HETATM   34  C   UNL     1       9.470  12.184  19.932  0.00  0.00     0.005 C 
ENDBRANCH  29  30
ENDBRANCH   1  29
TORSDOF 6
ENDMDL
MODEL 5
REMARK VINA RESULT:    -8.461      1.525      2.048
REMARK INTER + INTRA:         -12.160
REMARK INTER:                 -10.672
REMARK INTRA:                  -1.488
REMARK UNBOUND:                -0.979
REMARK  6 active torsions:
REMARK  status: ('A' for Active; 'I' for Inactive)
REMARK    1  A    between atoms: C_5  and  C_6 
REMARK    2  A    between atoms: C_6  and  C_7 
REMARK    3  A    between atoms: C_14  and  C_18 
REMARK    4  A    between atoms: C_15  and  O_17 
REMARK       I    between atoms: C_18  and  N_20 
REMARK    5  A    between atoms: N_20  and  C_22 
REMARK    6  A    between atoms: C_25  and  N_28 
ROOT
HETATM    1  C   UNL     1      12.642  14.200  22.516  0.00  0.00     0.067 A 
HETATM    2  N   UNL     1      13.921  14.215  22.935  0.00  0.00    -0.178 NA
HETATM    3  N   UNL     1      13.827  14.147  24.272  0.00  0.00    -0.277 N 
HETATM    4  H   UNL     1      14.682  14.175  24.813  0.00  0.00     0.189 HD
HETATM    5  C   UNL     1      11.738  14.060  23.609  0.00  0.00     0.019 A 
HETATM    6  C   UNL     1      12.541  14.112  24.739  0.00  0.00     0.065 A 
HETATM    7  C   UNL     1      10.343  13.966  23.785  0.00  0.00     0.035 C 
HETATM    8  C   UNL     1       9.765  14.082  25.078  0.00  0.00     0.066 C 
HETATM    9  C   UNL     1      10.628  14.255  26.167  0.00  0.00     0.083 C 
HETATM   10  C   UNL     1      12.023  14.170  26.037  0.00  0.00     0.069 C 
ENDROOT
BRANCH   8  11
HETATM   11  C   UNL     1       8.270  14.220  25.081  0.00  0.00     0.260 C 
HETATM   12  O   UNL     1       7.898  15.324  25.499  0.00  0.00    -0.267 OA
HETATM   13  N   UNL     1       7.357  13.208  24.684  0.00  0.00    -0.318 N 
HETATM   14  C   UNL     1       7.739  11.840  24.338  0.00  0.00     0.159 C 
BRANCH  13  15
HETATM   15  C   UNL     1       5.931  13.502  24.647  0.00  0.00     0.037 A 
HETATM   16  C   UNL     1       5.068  13.041  25.644  0.00  0.00     0.032 A 
HETATM   17  C   UNL     1       3.682  13.246  25.577  0.00  0.00     0.031 A 
HETATM   18  C   UNL     1       3.074  13.926  24.519  0.00  0.00     0.030 A 
HETATM   19  C   UNL     1       3.944  14.471  23.568  0.00  0.00     0.031 A 
HETATM   20  C   UNL     1       5.344  14.266  23.628  0.00  0.00     0.032 A 
BRANCH  18  21
HETATM   21  N   UNL     1       1.698  14.022  24.441  0.00  0.00    -0.377 N 
HETATM   22  C   UNL     1       0.934  14.157  23.194  0.00  0.00     0.149 C 
HETATM   23  C   UNL     1      -0.064  12.998  23.051  0.00  0.00     0.187 C 
HETATM   24  O   UNL     1      -0.924  12.894  24.200  0.00  0.00    -0.388 OA
HETATM   25  C   UNL     1      -0.139  12.670  25.383  0.00  0.00     0.187 C 
HETATM   26  C   UNL     1       0.855  13.816  25.635  0.00  0.00     0.149 C 
ENDBRANCH  18  21
ENDBRANCH  13  15
ENDBRANCH   8  11
BRANCH   9  27
HETATM   27  O   UNL     1      10.212  14.626  27.417  0.00  0.00    -0.360 OA
HETATM   28  H   UNL     1       9.238  14.593  27.411  0.00  0.00     0.217 HD
ENDBRANCH   9  27
BRANCH   1  29
HETATM   29  C   UNL     1      12.361  14.367  21.052  0.00  0.00     0.066 C 
BRANCH  29  30
HETATM   30  C   UNL     1      11.980  13.074  20.307  0.00  0.00    -0.009 C 
HETATM   31  C   UNL     1      10.453  12.866  20.291  0.00  0.00     0.005 C 
HETATM   32  C   UNL     1      10.268  11.357  20.313  0.00  0.00     0.000 C 
HETATM   33  C   UNL     1      11.362  10.897  21.260  0.00  0.00     0.000 C 
HETATM   34  C   UNL     1      12.557  11.776  20.908  0.00  0.00     0.005 C 
ENDBRANCH  29  30
ENDBRANCH   1  29
TORSDOF 6
ENDMDL
MODEL 6
REMARK VINA RESULT:    -8.389      2.119      2.930
REMARK INTER + INTRA:         -12.065
REMARK INTER:                 -10.634
REMARK INTRA:                  -1.431
REMARK UNBOUND:                -0.979
REMARK  6 active torsions:
REMARK  status: ('A' for Active; 'I' for Inactive)
REMARK    1  A    between atoms: C_5  and  C_6 
REMARK    2  A    between atoms: C_6  and  C_7 
REMARK    3  A    between atoms: C_14  and  C_18 
REMARK    4  A    between atoms: C_15  and  O_17 
REMARK       I    between atoms: C_18  and  N_20 
REMARK    5  A    between atoms: N_20  and  C_22 
REMARK    6  A    between atoms: C_25  and  N_28 
ROOT
HETATM    1  C   UNL     1      10.918  12.635  24.419  0.00  0.00     0.067 A 
HETATM    2  N   UNL     1      12.120  13.119  24.056  0.00  0.00    -0.178 NA
HETATM    3  N   UNL     1      11.826  14.218  23.343  0.00  0.00    -0.277 N 
HETATM    4  H   UNL     1      12.591  14.741  22.934  0.00  0.00     0.189 HD
HETATM    5  C   UNL     1       9.860  13.480  23.974  0.00  0.00     0.019 A 
HETATM    6  C   UNL     1      10.485  14.453  23.209  0.00  0.00     0.065 A 
HETATM    7  C   UNL     1       8.454  13.503  24.065  0.00  0.00     0.035 C 
HETATM    8  C   UNL     1       7.690  14.398  23.269  0.00  0.00     0.066 C 
HETATM    9  C   UNL     1       8.380  15.275  22.425  0.00  0.00     0.083 C 
HETATM   10  C   UNL     1       9.779  15.393  22.451  0.00  0.00     0.069 C 
ENDROOT
BRANCH   8  11
HETATM   11  C   UNL     1       6.211  14.134  23.282  0.00  0.00     0.260 C 
HETATM   12  O   UNL     1       5.800  13.698  22.200  0.00  0.00    -0.267 OA
HETATM   13  N   UNL     1       5.350  14.374  24.385  0.00  0.00    -0.318 N 
HETATM   14  C   UNL     1       5.757  15.035  25.624  0.00  0.00     0.159 C 
BRANCH  13  15
HETATM   15  C   UNL     1       3.948  13.988  24.298  0.00  0.00     0.037 A 
HETATM   16  C   UNL     1       2.956  14.920  23.986  0.00  0.00     0.032 A 
HETATM   17  C   UNL     1       1.595  14.579  23.981  0.00  0.00     0.031 A 
HETATM   18  C   UNL     1       1.142  13.292  24.278  0.00  0.00     0.030 A 
HETATM   19  C   UNL     1       2.138  12.334  24.497  0.00  0.00     0.031 A 
HETATM   20  C   UNL     1       3.513  12.671  24.506  0.00  0.00     0.032 A 
BRANCH  18  21
HETATM   21  N   UNL     1      -0.210  13.022  24.357  0.00  0.00    -0.377 N 
HETATM   22  C   UNL     1      -1.073  12.709  23.209  0.00  0.00     0.149 C 
HETATM   23  C   UNL     1      -1.728  11.331  23.393  0.00  0.00     0.187 C 
HETATM   24  O   UNL     1      -2.439  11.245  24.640  0.00  0.00    -0.388 OA
HETATM   25  C   UNL     1      -1.538  11.466  25.738  0.00  0.00     0.187 C 
HETATM   26  C   UNL     1      -0.875  12.851  25.663  0.00  0.00     0.149 C 
ENDBRANCH  18  21
ENDBRANCH  13  15
ENDBRANCH   8  11
BRANCH   9  27
HETATM   27  O   UNL     1       7.783  16.006  21.433  0.00  0.00    -0.360 OA
HETATM   28  H   UNL     1       6.968  15.531  21.185  0.00  0.00     0.217 HD
ENDBRANCH   9  27
BRANCH   1  29
HETATM   29  C   UNL     1      10.861  11.331  25.158  0.00  0.00     0.066 C 
BRANCH  29  30
HETATM   30  C   UNL     1      10.209  10.168  24.387  0.00  0.00    -0.009 C 
HETATM   31  C   UNL     1      10.120  10.476  22.879  0.00  0.00     0.005 C 
HETATM   32  C   UNL     1       8.857   9.769  22.414  0.00  0.00     0.000 C 
HETATM   33  C   UNL     1       7.900   9.994  23.570  0.00  0.00     0.000 C 
HETATM   34  C   UNL     1       8.766   9.826  24.814  0.00  0.00     0.005 C 
ENDBRANCH  29  30
ENDBRANCH   1  29
TORSDOF 6
ENDMDL
MODEL 7
REMARK VINA RESULT:    -8.381      2.205      3.086
REMARK INTER + INTRA:         -12.055
REMARK INTER:                 -10.580
REMARK INTRA:                  -1.474
REMARK UNBOUND:                -0.979
REMARK  6 active torsions:
REMARK  status: ('A' for Active; 'I' for Inactive)
REMARK    1  A    between atoms: C_5  and  C_6 
REMARK    2  A    between atoms: C_6  and  C_7 
REMARK    3  A    between atoms: C_14  and  C_18 
REMARK    4  A    between atoms: C_15  and  O_17 
REMARK       I    between atoms: C_18  and  N_20 
REMARK    5  A    between atoms: N_20  and  C_22 
REMARK    6  A    between atoms: C_25  and  N_28 
ROOT
HETATM    1  C   UNL     1      10.644  15.192  22.490  0.00  0.00     0.067 A 
HETATM    2  N   UNL     1      11.891  15.395  22.952  0.00  0.00    -0.178 NA
HETATM    3  N   UNL     1      11.774  15.249  24.281  0.00  0.00    -0.277 N 
HETATM    4  H   UNL     1      12.599  15.390  24.852  0.00  0.00     0.189 HD
HETATM    5  C   UNL     1       9.746  14.856  23.545  0.00  0.00     0.019 A 
HETATM    6  C   UNL     1      10.499  14.983  24.702  0.00  0.00     0.065 A 
HETATM    7  C   UNL     1       8.381  14.528  23.670  0.00  0.00     0.035 C 
HETATM    8  C   UNL     1       7.758  14.487  24.946  0.00  0.00     0.066 C 
HETATM    9  C   UNL     1       8.552  14.746  26.070  0.00  0.00     0.083 C 
HETATM   10  C   UNL     1       9.945  14.896  25.984  0.00  0.00     0.069 C 
ENDROOT
BRANCH   8  11
HETATM   11  C   UNL     1       6.261  14.379  24.904  0.00  0.00     0.260 C 
HETATM   12  O   UNL     1       5.704  15.467  25.096  0.00  0.00    -0.267 OA
HETATM   13  N   UNL     1       5.535  13.176  24.699  0.00  0.00    -0.318 N 
HETATM   14  C   UNL     1       6.141  11.847  24.629  0.00  0.00     0.159 C 
BRANCH  13  15
HETATM   15  C   UNL     1       4.084  13.224  24.589  0.00  0.00     0.037 A 
HETATM   16  C   UNL     1       3.278  13.464  25.704  0.00  0.00     0.032 A 
HETATM   17  C   UNL     1       1.877  13.430  25.627  0.00  0.00     0.031 A 
HETATM   18  C   UNL     1       1.197  13.162  24.437  0.00  0.00     0.030 A 
HETATM   19  C   UNL     1       1.999  13.015  23.299  0.00  0.00     0.031 A 
HETATM   20  C   UNL     1       3.413  13.046  23.370  0.00  0.00     0.032 A 
BRANCH  18  21
HETATM   21  N   UNL     1      -0.179  13.042  24.423  0.00  0.00    -0.377 N 
HETATM   22  C   UNL     1      -0.992  12.829  23.219  0.00  0.00     0.149 C 
HETATM   23  C   UNL     1      -1.805  11.531  23.345  0.00  0.00     0.187 C 
HETATM   24  O   UNL     1      -2.603  11.520  24.542  0.00  0.00    -0.388 OA
HETATM   25  C   UNL     1      -1.758  11.637  25.699  0.00  0.00     0.187 C 
HETATM   26  C   UNL     1      -0.944  12.942  25.682  0.00  0.00     0.149 C 
ENDBRANCH  18  21
ENDBRANCH  13  15
ENDBRANCH   8  11
BRANCH   9  27
HETATM   27  O   UNL     1       8.047  14.985  27.320  0.00  0.00    -0.360 OA
HETATM   28  H   UNL     1       8.808  15.180  27.898  0.00  0.00     0.217 HD
ENDBRANCH   9  27
BRANCH   1  29
HETATM   29  C   UNL     1      10.378  15.380  21.026  0.00  0.00     0.066 C 
BRANCH  29  30
HETATM   30  C   UNL     1      10.094  14.086  20.240  0.00  0.00    -0.009 C 
HETATM   31  C   UNL     1       8.581  13.872  20.039  0.00  0.00     0.005 C 
HETATM   32  C   UNL     1       8.400  12.363  20.040  0.00  0.00     0.000 C 
HETATM   33  C   UNL     1       9.373  11.907  21.112  0.00  0.00     0.000 C 
HETATM   34  C   UNL     1      10.599  12.789  20.907  0.00  0.00     0.005 C 
ENDBRANCH  29  30
ENDBRANCH   1  29
TORSDOF 6
ENDMDL
MODEL 8
REMARK VINA RESULT:    -8.319      2.015      3.466
REMARK INTER + INTRA:         -11.972
REMARK INTER:                 -11.151
REMARK INTRA:                  -0.821
REMARK UNBOUND:                -0.979
REMARK  6 active torsions:
REMARK  status: ('A' for Active; 'I' for Inactive)
REMARK    1  A    between atoms: C_5  and  C_6 
REMARK    2  A    between atoms: C_6  and  C_7 
REMARK    3  A    between atoms: C_14  and  C_18 
REMARK    4  A    between atoms: C_15  and  O_17 
REMARK       I    between atoms: C_18  and  N_20 
REMARK    5  A    between atoms: N_20  and  C_22 
REMARK    6  A    between atoms: C_25  and  N_28 
ROOT
HETATM    1  C   UNL     1      11.978  11.035  22.514  0.00  0.00     0.067 A 
HETATM    2  N   UNL     1      13.048  10.894  21.711  0.00  0.00    -0.178 NA
HETATM    3  N   UNL     1      12.642  11.402  20.537  0.00  0.00    -0.277 N 
HETATM    4  H   UNL     1      13.287  11.374  19.756  0.00  0.00     0.189 HD
HETATM    5  C   UNL     1      10.907  11.697  21.845  0.00  0.00     0.019 A 
HETATM    6  C   UNL     1      11.347  11.845  20.539  0.00  0.00     0.065 A 
HETATM    7  C   UNL     1       9.602  12.124  22.162  0.00  0.00     0.035 C 
HETATM    8  C   UNL     1       8.709  12.545  21.142  0.00  0.00     0.066 C 
HETATM    9  C   UNL     1       9.179  12.556  19.823  0.00  0.00     0.083 C 
HETATM   10  C   UNL     1      10.524  12.309  19.507  0.00  0.00     0.069 C 
ENDROOT
BRANCH   8  11
HETATM   11  C   UNL     1       7.287  12.723  21.594  0.00  0.00     0.260 C 
HETATM   12  O   UNL     1       6.538  11.844  21.152  0.00  0.00    -0.267 OA
HETATM   13  N   UNL     1       6.819  13.785  22.412  0.00  0.00    -0.318 N 
HETATM   14  C   UNL     1       7.629  14.930  22.825  0.00  0.00     0.159 C 
BRANCH  13  15
HETATM   15  C   UNL     1       5.432  13.790  22.856  0.00  0.00     0.037 A 
HETATM   16  C   UNL     1       4.664  12.624  22.854  0.00  0.00     0.032 A 
HETATM   17  C   UNL     1       3.304  12.631  23.199  0.00  0.00     0.031 A 
HETATM   18  C   UNL     1       2.631  13.796  23.573  0.00  0.00     0.030 A 
HETATM   19  C   UNL     1       3.419  14.949  23.668  0.00  0.00     0.031 A 
HETATM   20  C   UNL     1       4.792  14.949  23.319  0.00  0.00     0.032 A 
BRANCH  18  21
HETATM   21  N   UNL     1       1.271  13.778  23.812  0.00  0.00    -0.377 N 
HETATM   22  C   UNL     1       0.241  13.528  22.794  0.00  0.00     0.149 C 
HETATM   23  C   UNL     1      -0.610  12.309  23.183  0.00  0.00     0.187 C 
HETATM   24  O   UNL     1      -1.177  12.457  24.497  0.00  0.00    -0.388 OA
HETATM   25  C   UNL     1      -0.131  12.606  25.471  0.00  0.00     0.187 C 
HETATM   26  C   UNL     1       0.741  13.840  25.189  0.00  0.00     0.149 C 
ENDBRANCH  18  21
ENDBRANCH  13  15
ENDBRANCH   8  11
BRANCH   9  27
HETATM   27  O   UNL     1       8.371  12.695  18.727  0.00  0.00    -0.360 OA
HETATM   28  H   UNL     1       8.947  12.635  17.943  0.00  0.00     0.217 HD
ENDBRANCH   9  27
BRANCH   1  29
HETATM   29  C   UNL     1      12.041  10.472  23.903  0.00  0.00     0.066 C 
BRANCH  29  30
HETATM   30  C   UNL     1      12.224  11.513  25.024  0.00  0.00    -0.009 C 
HETATM   31  C   UNL     1      10.873  11.893  25.661  0.00  0.00     0.005 C 
HETATM   32  C   UNL     1      11.035  13.348  26.073  0.00  0.00     0.000 C 
HETATM   33  C   UNL     1      11.837  13.935  24.926  0.00  0.00     0.000 C 
HETATM   34  C   UNL     1      12.851  12.850  24.582  0.00  0.00     0.005 C 
ENDBRANCH  29  30
ENDBRANCH   1  29
TORSDOF 6
ENDMDL
MODEL 9
REMARK VINA RESULT:    -8.287      2.137      3.807
REMARK INTER + INTRA:         -11.930
REMARK INTER:                 -10.951
REMARK INTRA:                  -0.979
REMARK UNBOUND:                -0.979
REMARK  6 active torsions:
REMARK  status: ('A' for Active; 'I' for Inactive)
REMARK    1  A    between atoms: C_5  and  C_6 
REMARK    2  A    between atoms: C_6  and  C_7 
REMARK    3  A    between atoms: C_14  and  C_18 
REMARK    4  A    between atoms: C_15  and  O_17 
REMARK       I    between atoms: C_18  and  N_20 
REMARK    5  A    between atoms: N_20  and  C_22 
REMARK    6  A    between atoms: C_25  and  N_28 
ROOT
HETATM    1  C   UNL     1      11.872  12.961  22.355  0.00  0.00     0.067 A 
HETATM    2  N   UNL     1      12.874  12.845  21.464  0.00  0.00    -0.178 NA
HETATM    3  N   UNL     1      12.248  12.722  20.284  0.00  0.00    -0.277 N 
HETATM    4  H   UNL     1      12.814  12.589  19.454  0.00  0.00     0.189 HD
HETATM    5  C   UNL     1      10.601  12.969  21.710  0.00  0.00     0.019 A 
HETATM    6  C   UNL     1      10.882  12.730  20.373  0.00  0.00     0.065 A 
HETATM    7  C   UNL     1       9.250  13.081  22.097  0.00  0.00     0.035 C 
HETATM    8  C   UNL     1       8.205  12.797  21.177  0.00  0.00     0.066 C 
HETATM    9  C   UNL     1       8.562  12.442  19.872  0.00  0.00     0.083 C 
HETATM   10  C   UNL     1       9.889  12.500  19.416  0.00  0.00     0.069 C 
ENDROOT
BRANCH   8  11
HETATM   11  C   UNL     1       6.840  12.708  21.796  0.00  0.00     0.260 C 
HETATM   12  O   UNL     1       6.231  11.687  21.451  0.00  0.00    -0.267 OA
HETATM   13  N   UNL     1       6.270  13.680  22.660  0.00  0.00    -0.318 N 
HETATM   14  C   UNL     1       6.882  14.972  22.967  0.00  0.00     0.159 C 
BRANCH  13  15
HETATM   15  C   UNL     1       4.970  13.428  23.266  0.00  0.00     0.037 A 
HETATM   16  C   UNL     1       4.681  12.210  23.884  0.00  0.00     0.032 A 
HETATM   17  C   UNL     1       3.407  11.924  24.398  0.00  0.00     0.031 A 
HETATM   18  C   UNL     1       2.350  12.834  24.334  0.00  0.00     0.030 A 
HETATM   19  C   UNL     1       2.662  14.090  23.803  0.00  0.00     0.031 A 
HETATM   20  C   UNL     1       3.945  14.385  23.280  0.00  0.00     0.032 A 
BRANCH  18  21
HETATM   21  N   UNL     1       1.087  12.478  24.765  0.00  0.00    -0.377 N 
HETATM   22  C   UNL     1       0.000  13.423  25.054  0.00  0.00     0.149 C 
HETATM   23  C   UNL     1      -1.221  13.119  24.174  0.00  0.00     0.187 C 
HETATM   24  O   UNL     1      -1.647  11.752  24.311  0.00  0.00    -0.388 OA
HETATM   25  C   UNL     1      -0.583  10.864  23.929  0.00  0.00     0.187 C 
HETATM   26  C   UNL     1       0.668  11.063  24.800  0.00  0.00     0.149 C 
ENDBRANCH  18  21
ENDBRANCH  13  15
ENDBRANCH   8  11
BRANCH   9  27
HETATM   27  O   UNL     1       7.689  11.907  18.963  0.00  0.00    -0.360 OA
HETATM   28  H   UNL     1       8.106  11.997  18.086  0.00  0.00     0.217 HD
ENDBRANCH   9  27
BRANCH   1  29
HETATM   29  C   UNL     1      12.209  13.017  23.815  0.00  0.00     0.066 C 
BRANCH  29  30
HETATM   30  C   UNL     1      11.851  14.339  24.520  0.00  0.00    -0.009 C 
HETATM   31  C   UNL     1      10.425  14.296  25.103  0.00  0.00     0.005 C 
HETATM   32  C   UNL     1       9.924  15.728  25.006  0.00  0.00     0.000 C 
HETATM   33  C   UNL     1      10.479  16.190  23.671  0.00  0.00     0.000 C 
HETATM   34  C   UNL     1      11.880  15.591  23.619  0.00  0.00     0.005 C 
ENDBRANCH  29  30
ENDBRANCH   1  29
TORSDOF 6
ENDMDL
