MODEL 1
REMARK VINA RESULT:    -7.856      0.000      0.000
REMARK INTER + INTRA:          -8.541
REMARK INTER:                  -8.146
REMARK INTRA:                  -0.395
REMARK UNBOUND:                 0.004
REMARK  2 active torsions:
REMARK  status: ('A' for Active; 'I' for Inactive)
REMARK    1  A    between atoms: C_9  and  N_10 
REMARK    2  A    between atoms: C_12  and  C_13 
REMARK       I    between atoms: C_13  and  N_15 
ROOT
HETATM    1  C   UNL     1       2.753   2.484  17.681  0.00  0.00     0.048 C 
HETATM    2  C   UNL     1       2.378   3.933  17.586  0.00  0.00    -0.061 A 
HETATM    3  C   UNL     1       3.228   4.942  18.059  0.00  0.00     0.023 A 
HETATM    4  C   UNL     1       1.174   4.300  16.990  0.00  0.00     0.009 A 
HETATM    5  C   UNL     1       0.827   5.648  16.886  0.00  0.00     0.033 A 
HETATM    6  C   UNL     1       1.653   6.657  17.354  0.00  0.00     0.073 A 
HETATM    7  C   UNL     1       2.875   6.318  17.941  0.00  0.00     0.028 A 
HETATM    8  N   UNL     1       1.212   7.916  17.245  0.00  0.00    -0.218 NA
HETATM    9  C   UNL     1       1.984   8.890  17.711  0.00  0.00     0.200 A 
HETATM   10  N   UNL     1       3.190   8.712  18.223  0.00  0.00    -0.212 NA
HETATM   11  C   UNL     1       3.608   7.431  18.379  0.00  0.00     0.140 A 
ENDROOT
BRANCH  11  12
HETATM   12  C   UNL     1       4.896   7.299  19.168  0.00  0.00     0.273 C 
HETATM   13  O   UNL     1       5.984   7.455  18.619  0.00  0.00    -0.266 OA
HETATM   14  N   UNL     1       4.789   6.979  20.525  0.00  0.00    -0.342 N 
HETATM   15  C   UNL     1       5.938   6.825  21.414  0.00  0.00     0.139 C 
HETATM   16  C   UNL     1       3.545   6.715  21.226  0.00  0.00     0.161 C 
HETATM   17  C   UNL     1       5.482   5.771  22.429  0.00  0.00     0.056 C 
HETATM   18  C   UNL     1       3.982   5.953  22.421  0.00  0.00    -0.056 C 
HETATM   19  C   UNL     1       6.019   5.791  23.837  0.00  0.00    -0.020 C 
HETATM   20  C   UNL     1       3.200   5.549  23.437  0.00  0.00    -0.018 C 
HETATM   21  C   UNL     1       3.803   4.963  24.682  0.00  0.00     0.054 C 
HETATM   22  C   UNL     1       5.248   5.378  24.864  0.00  0.00    -0.026 C 
ENDBRANCH  11  12
BRANCH   9  23
HETATM   23  N   UNL     1       1.481  10.170  17.710  0.00  0.00    -0.271 NA
HETATM   24  H   UNL     1       0.618  10.221  17.189  0.00  0.00     0.127 HD
HETATM   25  H   UNL     1       2.201  10.848  17.507  0.00  0.00     0.127 HD
ENDBRANCH   9  23
TORSDOF 2
ENDMDL
MODEL 2
REMARK VINA RESULT:    -7.778      2.476      3.637
REMARK INTER + INTRA:          -8.456
REMARK INTER:                  -8.003
REMARK INTRA:                  -0.453
REMARK UNBOUND:                 0.004
REMARK  2 active torsions:
REMARK  status: ('A' for Active; 'I' for Inactive)
REMARK    1  A    between atoms: C_9  and  N_10 
REMARK    2  A    between atoms: C_12  and  C_13 
REMARK       I    between atoms: C_13  and  N_15 
ROOT
HETATM    1  C   UNL     1       0.143   5.334  19.129  0.00  0.00     0.048 C 
HETATM    2  C   UNL     1       1.471   6.013  18.974  0.00  0.00    -0.061 A 
HETATM    3  C   UNL     1       2.493   5.846  19.917  0.00  0.00     0.023 A 
HETATM    4  C   UNL     1       1.717   6.808  17.857  0.00  0.00     0.009 A 
HETATM    5  C   UNL     1       2.956   7.430  17.700  0.00  0.00     0.033 A 
HETATM    6  C   UNL     1       3.976   7.280  18.626  0.00  0.00     0.073 A 
HETATM    7  C   UNL     1       3.762   6.475  19.747  0.00  0.00     0.028 A 
HETATM    8  N   UNL     1       5.112   7.952  18.406  0.00  0.00    -0.218 NA
HETATM    9  C   UNL     1       6.088   7.834  19.298  0.00  0.00     0.200 A 
HETATM   10  N   UNL     1       6.042   7.051  20.363  0.00  0.00    -0.212 NA
HETATM   11  C   UNL     1       4.869   6.416  20.607  0.00  0.00     0.140 A 
ENDROOT
BRANCH  11  12
HETATM   12  C   UNL     1       4.820   5.717  21.952  0.00  0.00     0.273 C 
HETATM   13  O   UNL     1       5.134   4.534  22.053  0.00  0.00    -0.266 OA
HETATM   14  N   UNL     1       4.389   6.466  23.051  0.00  0.00    -0.342 N 
HETATM   15  C   UNL     1       4.296   5.933  24.408  0.00  0.00     0.139 C 
HETATM   16  C   UNL     1       3.939   7.846  22.997  0.00  0.00     0.161 C 
HETATM   17  C   UNL     1       3.125   6.705  25.029  0.00  0.00     0.056 C 
HETATM   18  C   UNL     1       3.142   7.993  24.240  0.00  0.00    -0.056 C 
HETATM   19  C   UNL     1       3.098   6.981  26.509  0.00  0.00    -0.020 C 
HETATM   20  C   UNL     1       2.580   9.127  24.694  0.00  0.00    -0.018 C 
HETATM   21  C   UNL     1       1.972   9.183  26.067  0.00  0.00     0.054 C 
HETATM   22  C   UNL     1       2.528   8.109  26.980  0.00  0.00    -0.026 C 
ENDBRANCH  11  12
BRANCH   9  23
HETATM   23  N   UNL     1       7.208   8.615  19.137  0.00  0.00    -0.271 NA
HETATM   24  H   UNL     1       7.554   8.944  20.027  0.00  0.00     0.127 HD
HETATM   25  H   UNL     1       7.083   9.290  18.397  0.00  0.00     0.127 HD
ENDBRANCH   9  23
TORSDOF 2
ENDMDL
MODEL 3
REMARK VINA RESULT:    -7.766      1.654      6.042
REMARK INTER + INTRA:          -8.443
REMARK INTER:                  -8.123
REMARK INTRA:                  -0.320
REMARK UNBOUND:                 0.004
REMARK  2 active torsions:
REMARK  status: ('A' for Active; 'I' for Inactive)
REMARK    1  A    between atoms: C_9  and  N_10 
REMARK    2  A    between atoms: C_12  and  C_13 
REMARK       I    between atoms: C_13  and  N_15 
ROOT
HETATM    1  C   UNL     1       2.505   5.472  23.337  0.00  0.00     0.048 C 
HETATM    2  C   UNL     1       3.649   6.060  22.565  0.00  0.00    -0.061 A 
HETATM    3  C   UNL     1       3.438   6.799  21.394  0.00  0.00     0.023 A 
HETATM    4  C   UNL     1       4.953   5.900  23.028  0.00  0.00     0.009 A 
HETATM    5  C   UNL     1       6.019   6.457  22.322  0.00  0.00     0.033 A 
HETATM    6  C   UNL     1       5.830   7.185  21.159  0.00  0.00     0.073 A 
HETATM    7  C   UNL     1       4.530   7.376  20.681  0.00  0.00     0.028 A 
HETATM    8  N   UNL     1       6.920   7.643  20.532  0.00  0.00    -0.218 NA
HETATM    9  C   UNL     1       6.752   8.323  19.404  0.00  0.00     0.200 A 
HETATM   10  N   UNL     1       5.578   8.634  18.882  0.00  0.00    -0.212 NA
HETATM   11  C   UNL     1       4.480   8.121  19.494  0.00  0.00     0.140 A 
ENDROOT
BRANCH  11  12
HETATM   12  C   UNL     1       3.194   8.336  18.720  0.00  0.00     0.273 C 
HETATM   13  O   UNL     1       2.619   9.421  18.751  0.00  0.00    -0.266 OA
HETATM   14  N   UNL     1       2.690   7.250  17.996  0.00  0.00    -0.342 N 
HETATM   15  C   UNL     1       1.467   7.306  17.199  0.00  0.00     0.139 C 
HETATM   16  C   UNL     1       3.276   5.922  17.965  0.00  0.00     0.161 C 
HETATM   17  C   UNL     1       0.904   5.883  17.286  0.00  0.00     0.056 C 
HETATM   18  C   UNL     1       2.151   5.063  17.522  0.00  0.00    -0.056 C 
HETATM   19  C   UNL     1       0.094   5.316  16.149  0.00  0.00    -0.020 C 
HETATM   20  C   UNL     1       2.213   3.747  17.254  0.00  0.00    -0.018 C 
HETATM   21  C   UNL     1       1.049   3.040  16.619  0.00  0.00     0.054 C 
HETATM   22  C   UNL     1       0.138   3.996  15.875  0.00  0.00    -0.026 C 
ENDBRANCH  11  12
BRANCH   9  23
HETATM   23  N   UNL     1       7.874   8.689  18.698  0.00  0.00    -0.271 NA
HETATM   24  H   UNL     1       8.097   8.004  17.991  0.00  0.00     0.127 HD
HETATM   25  H   UNL     1       8.612   8.997  19.313  0.00  0.00     0.127 HD
ENDBRANCH   9  23
TORSDOF 2
ENDMDL
MODEL 4
REMARK VINA RESULT:    -7.553      2.238      3.361
REMARK INTER + INTRA:          -8.211
REMARK INTER:                  -7.751
REMARK INTRA:                  -0.461
REMARK UNBOUND:                 0.004
REMARK  2 active torsions:
REMARK  status: ('A' for Active; 'I' for Inactive)
REMARK    1  A    between atoms: C_9  and  N_10 
REMARK    2  A    between atoms: C_12  and  C_13 
REMARK       I    between atoms: C_13  and  N_15 
ROOT
HETATM    1  C   UNL     1       0.061   5.712  18.440  0.00  0.00     0.048 C 
HETATM    2  C   UNL     1       1.404   6.373  18.533  0.00  0.00    -0.061 A 
HETATM    3  C   UNL     1       2.488   5.742  19.159  0.00  0.00     0.023 A 
HETATM    4  C   UNL     1       1.600   7.629  17.965  0.00  0.00     0.009 A 
HETATM    5  C   UNL     1       2.851   8.242  18.037  0.00  0.00     0.033 A 
HETATM    6  C   UNL     1       3.932   7.636  18.656  0.00  0.00     0.073 A 
HETATM    7  C   UNL     1       3.768   6.368  19.220  0.00  0.00     0.028 A 
HETATM    8  N   UNL     1       5.078   8.324  18.710  0.00  0.00    -0.218 NA
HETATM    9  C   UNL     1       6.115   7.762  19.321  0.00  0.00     0.200 A 
HETATM   10  N   UNL     1       6.115   6.543  19.832  0.00  0.00    -0.212 NA
HETATM   11  C   UNL     1       4.935   5.874  19.822  0.00  0.00     0.140 A 
ENDROOT
BRANCH  11  12
HETATM   12  C   UNL     1       4.958   4.582  20.616  0.00  0.00     0.273 C 
HETATM   13  O   UNL     1       5.291   3.527  20.082  0.00  0.00    -0.266 OA
HETATM   14  N   UNL     1       4.570   4.644  21.958  0.00  0.00    -0.342 N 
HETATM   15  C   UNL     1       4.547   3.487  22.849  0.00  0.00     0.139 C 
HETATM   16  C   UNL     1       4.102   5.839  22.638  0.00  0.00     0.161 C 
HETATM   17  C   UNL     1       3.398   3.788  23.818  0.00  0.00     0.056 C 
HETATM   18  C   UNL     1       3.362   5.299  23.805  0.00  0.00    -0.056 C 
HETATM   19  C   UNL     1       3.438   3.263  25.229  0.00  0.00    -0.020 C 
HETATM   20  C   UNL     1       2.809   6.017  24.797  0.00  0.00    -0.018 C 
HETATM   21  C   UNL     1       2.265   5.339  26.023  0.00  0.00     0.054 C 
HETATM   22  C   UNL     1       2.876   3.969  26.233  0.00  0.00    -0.026 C 
ENDBRANCH  11  12
BRANCH   9  23
HETATM   23  N   UNL     1       7.255   8.514  19.482  0.00  0.00    -0.271 NA
HETATM   24  H   UNL     1       8.080   7.933  19.465  0.00  0.00     0.127 HD
HETATM   25  H   UNL     1       7.155   9.177  20.236  0.00  0.00     0.127 HD
ENDBRANCH   9  23
TORSDOF 2
ENDMDL
MODEL 5
REMARK VINA RESULT:    -7.546      2.364      3.443
REMARK INTER + INTRA:          -8.203
REMARK INTER:                  -7.764
REMARK INTRA:                  -0.439
REMARK UNBOUND:                 0.004
REMARK  2 active torsions:
REMARK  status: ('A' for Active; 'I' for Inactive)
REMARK    1  A    between atoms: C_9  and  N_10 
REMARK    2  A    between atoms: C_12  and  C_13 
REMARK       I    between atoms: C_13  and  N_15 
ROOT
HETATM    1  C   UNL     1       0.407   5.243  19.127  0.00  0.00     0.048 C 
HETATM    2  C   UNL     1       1.775   5.838  18.972  0.00  0.00    -0.061 A 
HETATM    3  C   UNL     1       2.448   6.419  20.055  0.00  0.00     0.023 A 
HETATM    4  C   UNL     1       2.413   5.794  17.735  0.00  0.00     0.009 A 
HETATM    5  C   UNL     1       3.692   6.333  17.588  0.00  0.00     0.033 A 
HETATM    6  C   UNL     1       4.369   6.916  18.646  0.00  0.00     0.073 A 
HETATM    7  C   UNL     1       3.759   6.959  19.902  0.00  0.00     0.028 A 
HETATM    8  N   UNL     1       5.573   7.443  18.393  0.00  0.00    -0.218 NA
HETATM    9  C   UNL     1       6.222   8.024  19.395  0.00  0.00     0.200 A 
HETATM   10  N   UNL     1       5.790   8.070  20.644  0.00  0.00    -0.212 NA
HETATM   11  C   UNL     1       4.547   7.582  20.881  0.00  0.00     0.140 A 
ENDROOT
BRANCH  11  12
HETATM   12  C   UNL     1       4.036   7.866  22.280  0.00  0.00     0.273 C 
HETATM   13  O   UNL     1       3.521   8.949  22.550  0.00  0.00    -0.266 OA
HETATM   14  N   UNL     1       4.192   6.860  23.239  0.00  0.00    -0.342 N 
HETATM   15  C   UNL     1       3.745   6.985  24.624  0.00  0.00     0.139 C 
HETATM   16  C   UNL     1       4.848   5.584  23.012  0.00  0.00     0.161 C 
HETATM   17  C   UNL     1       4.751   6.140  25.415  0.00  0.00     0.056 C 
HETATM   18  C   UNL     1       5.202   5.135  24.381  0.00  0.00    -0.056 C 
HETATM   19  C   UNL     1       4.330   5.452  26.687  0.00  0.00    -0.020 C 
HETATM   20  C   UNL     1       5.754   3.955  24.712  0.00  0.00    -0.018 C 
HETATM   21  C   UNL     1       5.874   3.543  26.152  0.00  0.00     0.054 C 
HETATM   22  C   UNL     1       4.884   4.273  27.037  0.00  0.00    -0.026 C 
ENDBRANCH  11  12
BRANCH   9  23
HETATM   23  N   UNL     1       7.403   8.670  19.111  0.00  0.00    -0.271 NA
HETATM   24  H   UNL     1       8.040   8.624  19.893  0.00  0.00     0.127 HD
HETATM   25  H   UNL     1       7.237   9.570  18.685  0.00  0.00     0.127 HD
ENDBRANCH   9  23
TORSDOF 2
ENDMDL
MODEL 6
REMARK VINA RESULT:    -7.426      2.016      6.083
REMARK INTER + INTRA:          -8.073
REMARK INTER:                  -7.634
REMARK INTRA:                  -0.440
REMARK UNBOUND:                 0.004
REMARK  2 active torsions:
REMARK  status: ('A' for Active; 'I' for Inactive)
REMARK    1  A    between atoms: C_9  and  N_10 
REMARK    2  A    between atoms: C_12  and  C_13 
REMARK       I    between atoms: C_13  and  N_15 
ROOT
HETATM    1  C   UNL     1       5.417   3.327  23.511  0.00  0.00     0.048 C 
HETATM    2  C   UNL     1       5.080   4.787  23.588  0.00  0.00    -0.061 A 
HETATM    3  C   UNL     1       4.986   5.578  22.436  0.00  0.00     0.023 A 
HETATM    4  C   UNL     1       4.824   5.374  24.824  0.00  0.00     0.009 A 
HETATM    5  C   UNL     1       4.496   6.728  24.901  0.00  0.00     0.033 A 
HETATM    6  C   UNL     1       4.405   7.527  23.772  0.00  0.00     0.073 A 
HETATM    7  C   UNL     1       4.640   6.959  22.517  0.00  0.00     0.028 A 
HETATM    8  N   UNL     1       4.126   8.823  23.954  0.00  0.00    -0.218 NA
HETATM    9  C   UNL     1       4.058   9.603  22.881  0.00  0.00     0.200 A 
HETATM   10  N   UNL     1       4.189   9.180  21.636  0.00  0.00    -0.212 NA
HETATM   11  C   UNL     1       4.524   7.877  21.463  0.00  0.00     0.140 A 
ENDROOT
BRANCH  11  12
HETATM   12  C   UNL     1       4.870   7.520  20.030  0.00  0.00     0.273 C 
HETATM   13  O   UNL     1       5.997   7.729  19.589  0.00  0.00    -0.266 OA
HETATM   14  N   UNL     1       3.855   6.967  19.242  0.00  0.00    -0.342 N 
HETATM   15  C   UNL     1       4.039   6.568  17.849  0.00  0.00     0.139 C 
HETATM   16  C   UNL     1       2.485   6.752  19.673  0.00  0.00     0.161 C 
HETATM   17  C   UNL     1       2.665   6.805  17.212  0.00  0.00     0.056 C 
HETATM   18  C   UNL     1       1.738   6.655  18.395  0.00  0.00    -0.056 C 
HETATM   19  C   UNL     1       2.206   5.954  16.057  0.00  0.00    -0.020 C 
HETATM   20  C   UNL     1       0.432   6.368  18.259  0.00  0.00    -0.018 C 
HETATM   21  C   UNL     1      -0.155   6.100  16.902  0.00  0.00     0.054 C 
HETATM   22  C   UNL     1       0.897   5.667  15.901  0.00  0.00    -0.026 C 
ENDBRANCH  11  12
BRANCH   9  23
HETATM   23  N   UNL     1       3.891  10.954  23.075  0.00  0.00    -0.271 NA
HETATM   24  H   UNL     1       3.729  11.430  22.199  0.00  0.00     0.127 HD
HETATM   25  H   UNL     1       4.593  11.326  23.696  0.00  0.00     0.127 HD
ENDBRANCH   9  23
TORSDOF 2
ENDMDL
MODEL 7
REMARK VINA RESULT:    -7.277      5.323      7.903
REMARK INTER + INTRA:          -7.911
REMARK INTER:                  -7.472
REMARK INTRA:                  -0.439
REMARK UNBOUND:                 0.004
REMARK  2 active torsions:
REMARK  status: ('A' for Active; 'I' for Inactive)
REMARK    1  A    between atoms: C_9  and  N_10 
REMARK    2  A    between atoms: C_12  and  C_13 
REMARK       I    between atoms: C_13  and  N_15 
ROOT
HETATM    1  C   UNL     1       2.052   8.399  30.064  0.00  0.00     0.048 C 
HETATM    2  C   UNL     1       1.140   8.839  28.958  0.00  0.00    -0.061 A 
HETATM    3  C   UNL     1       1.614   9.041  27.655  0.00  0.00     0.023 A 
HETATM    4  C   UNL     1      -0.217   9.026  29.211  0.00  0.00     0.009 A 
HETATM    5  C   UNL     1      -1.072   9.421  28.182  0.00  0.00     0.033 A 
HETATM    6  C   UNL     1      -0.619   9.632  26.890  0.00  0.00     0.073 A 
HETATM    7  C   UNL     1       0.734   9.434  26.604  0.00  0.00     0.028 A 
HETATM    8  N   UNL     1      -1.511  10.050  25.984  0.00  0.00    -0.218 NA
HETATM    9  C   UNL     1      -1.084  10.276  24.747  0.00  0.00     0.200 A 
HETATM   10  N   UNL     1       0.152  10.062  24.328  0.00  0.00    -0.212 NA
HETATM   11  C   UNL     1       1.061   9.689  25.264  0.00  0.00     0.140 A 
ENDROOT
BRANCH  11  12
HETATM   12  C   UNL     1       2.490   9.675  24.757  0.00  0.00     0.273 C 
HETATM   13  O   UNL     1       3.145  10.713  24.704  0.00  0.00    -0.266 OA
HETATM   14  N   UNL     1       3.012   8.447  24.340  0.00  0.00    -0.342 N 
HETATM   15  C   UNL     1       4.372   8.275  23.834  0.00  0.00     0.139 C 
HETATM   16  C   UNL     1       2.280   7.193  24.310  0.00  0.00     0.161 C 
HETATM   17  C   UNL     1       4.249   7.129  22.824  0.00  0.00     0.056 C 
HETATM   18  C   UNL     1       3.056   6.367  23.354  0.00  0.00    -0.056 C 
HETATM   19  C   UNL     1       5.413   6.204  22.579  0.00  0.00    -0.020 C 
HETATM   20  C   UNL     1       2.828   5.078  23.049  0.00  0.00    -0.018 C 
HETATM   21  C   UNL     1       3.811   4.302  22.219  0.00  0.00     0.054 C 
HETATM   22  C   UNL     1       5.198   4.910  22.262  0.00  0.00    -0.026 C 
ENDBRANCH  11  12
BRANCH   9  23
HETATM   23  N   UNL     1      -1.970  10.820  23.847  0.00  0.00    -0.271 NA
HETATM   24  H   UNL     1      -2.470  11.597  24.254  0.00  0.00     0.127 HD
HETATM   25  H   UNL     1      -2.503  10.104  23.377  0.00  0.00     0.127 HD
ENDBRANCH   9  23
TORSDOF 2
ENDMDL
MODEL 8
REMARK VINA RESULT:    -7.253      2.413      6.776
REMARK INTER + INTRA:          -7.885
REMARK INTER:                  -7.487
REMARK INTRA:                  -0.398
REMARK UNBOUND:                 0.004
REMARK  2 active torsions:
REMARK  status: ('A' for Active; 'I' for Inactive)
REMARK    1  A    between atoms: C_9  and  N_10 
REMARK    2  A    between atoms: C_12  and  C_13 
REMARK       I    between atoms: C_13  and  N_15 
ROOT
HETATM    1  C   UNL     1       3.875  10.789  23.204  0.00  0.00     0.048 C 
HETATM    2  C   UNL     1       3.878   9.307  23.430  0.00  0.00    -0.061 A 
HETATM    3  C   UNL     1       4.281   8.414  22.428  0.00  0.00     0.023 A 
HETATM    4  C   UNL     1       3.502   8.794  24.670  0.00  0.00     0.009 A 
HETATM    5  C   UNL     1       3.518   7.416  24.891  0.00  0.00     0.033 A 
HETATM    6  C   UNL     1       3.907   6.519  23.909  0.00  0.00     0.073 A 
HETATM    7  C   UNL     1       4.305   7.007  22.662  0.00  0.00     0.028 A 
HETATM    8  N   UNL     1       3.847   5.216  24.205  0.00  0.00    -0.218 NA
HETATM    9  C   UNL     1       4.196   4.346  23.265  0.00  0.00     0.200 A 
HETATM   10  N   UNL     1       4.658   4.675  22.071  0.00  0.00    -0.212 NA
HETATM   11  C   UNL     1       4.665   5.996  21.760  0.00  0.00     0.140 A 
ENDROOT
BRANCH  11  12
HETATM   12  C   UNL     1       4.997   6.279  20.307  0.00  0.00     0.273 C 
HETATM   13  O   UNL     1       6.126   6.638  19.983  0.00  0.00    -0.266 OA
HETATM   14  N   UNL     1       3.968   6.134  19.372  0.00  0.00    -0.342 N 
HETATM   15  C   UNL     1       4.136   6.364  17.939  0.00  0.00     0.139 C 
HETATM   16  C   UNL     1       2.595   5.778  19.688  0.00  0.00     0.161 C 
HETATM   17  C   UNL     1       2.765   6.874  17.483  0.00  0.00     0.056 C 
HETATM   18  C   UNL     1       1.840   6.248  18.500  0.00  0.00    -0.056 C 
HETATM   19  C   UNL     1       2.283   6.605  16.081  0.00  0.00    -0.020 C 
HETATM   20  C   UNL     1       0.527   6.069  18.272  0.00  0.00    -0.018 C 
HETATM   21  C   UNL     1      -0.071   6.416  16.938  0.00  0.00     0.054 C 
HETATM   22  C   UNL     1       0.967   6.434  15.835  0.00  0.00    -0.026 C 
ENDBRANCH  11  12
BRANCH   9  23
HETATM   23  N   UNL     1       4.021   3.007  23.527  0.00  0.00    -0.271 NA
HETATM   24  H   UNL     1       3.329   2.865  24.247  0.00  0.00     0.127 HD
HETATM   25  H   UNL     1       4.906   2.530  23.616  0.00  0.00     0.127 HD
ENDBRANCH   9  23
TORSDOF 2
ENDMDL
MODEL 9
REMARK VINA RESULT:    -7.210      4.766      8.017
REMARK INTER + INTRA:          -7.838
REMARK INTER:                  -7.842
REMARK INTRA:                   0.004
REMARK UNBOUND:                 0.004
REMARK  2 active torsions:
REMARK  status: ('A' for Active; 'I' for Inactive)
REMARK    1  A    between atoms: C_9  and  N_10 
REMARK    2  A    between atoms: C_12  and  C_13 
REMARK       I    between atoms: C_13  and  N_15 
ROOT
HETATM    1  C   UNL     1       4.246   8.597  29.952  0.00  0.00     0.048 C 
HETATM    2  C   UNL     1       3.125   8.386  28.978  0.00  0.00    -0.061 A 
HETATM    3  C   UNL     1       3.267   7.537  27.873  0.00  0.00     0.023 A 
HETATM    4  C   UNL     1       1.902   9.019  29.181  0.00  0.00     0.009 A 
HETATM    5  C   UNL     1       0.851   8.814  28.286  0.00  0.00     0.033 A 
HETATM    6  C   UNL     1       0.976   7.983  27.185  0.00  0.00     0.073 A 
HETATM    7  C   UNL     1       2.187   7.322  26.966  0.00  0.00     0.028 A 
HETATM    8  N   UNL     1      -0.076   7.886  26.362  0.00  0.00    -0.218 NA
HETATM    9  C   UNL     1       0.040   7.110  25.292  0.00  0.00     0.200 A 
HETATM   10  N   UNL     1       1.102   6.376  25.007  0.00  0.00    -0.212 NA
HETATM   11  C   UNL     1       2.182   6.521  25.815  0.00  0.00     0.140 A 
ENDROOT
BRANCH  11  12
HETATM   12  C   UNL     1       3.426   5.820  25.304  0.00  0.00     0.273 C 
HETATM   13  O   UNL     1       3.970   4.945  25.972  0.00  0.00    -0.266 OA
HETATM   14  N   UNL     1       3.929   6.226  24.063  0.00  0.00    -0.342 N 
HETATM   15  C   UNL     1       5.113   5.641  23.439  0.00  0.00     0.139 C 
HETATM   16  C   UNL     1       3.381   7.296  23.248  0.00  0.00     0.161 C 
HETATM   17  C   UNL     1       5.721   6.800  22.641  0.00  0.00     0.056 C 
HETATM   18  C   UNL     1       4.510   7.658  22.357  0.00  0.00    -0.056 C 
HETATM   19  C   UNL     1       6.496   6.528  21.378  0.00  0.00    -0.020 C 
HETATM   20  C   UNL     1       4.475   8.549  21.352  0.00  0.00    -0.018 C 
HETATM   21  C   UNL     1       5.629   8.674  20.398  0.00  0.00     0.054 C 
HETATM   22  C   UNL     1       6.478   7.419  20.365  0.00  0.00    -0.026 C 
ENDBRANCH  11  12
BRANCH   9  23
HETATM   23  N   UNL     1      -0.994   7.103  24.384  0.00  0.00    -0.271 NA
HETATM   24  H   UNL     1      -0.887   6.353  23.717  0.00  0.00     0.127 HD
HETATM   25  H   UNL     1      -1.181   8.030  24.033  0.00  0.00     0.127 HD
ENDBRANCH   9  23
TORSDOF 2
ENDMDL
