MODEL 1
REMARK VINA RESULT:   -10.074      0.000      0.000
REMARK INTER + INTRA:         -16.639
REMARK INTER:                 -14.448
REMARK INTRA:                  -2.191
REMARK UNBOUND:                -2.443
REMARK  8 active torsions:
REMARK  status: ('A' for Active; 'I' for Inactive)
REMARK       I    between atoms: C_2  and  N_3 
REMARK    1  A    between atoms: C_2  and  C_18 
REMARK    2  A    between atoms: N_3  and  C_4 
REMARK    3  A    between atoms: C_4  and  C_5 
REMARK    4  A    between atoms: C_6  and  C_7 
REMARK    5  A    between atoms: C_19  and  O_20 
REMARK    6  A    between atoms: C_22  and  O_23 
REMARK    7  A    between atoms: C_24  and  C_25 
REMARK    8  A    between atoms: N_26  and  C_27 
ROOT
HETATM    1  C   UNL     1       7.949  11.024  24.153  0.00  0.00     0.066 C 
HETATM    2  C   UNL     1       8.336   9.726  24.504  0.00  0.00     0.084 C 
HETATM    3  C   UNL     1       9.678   9.430  24.688  0.00  0.00     0.075 C 
HETATM    4  C   UNL     1      10.641  10.408  24.437  0.00  0.00     0.082 C 
HETATM    5  C   UNL     1      10.295  11.685  23.944  0.00  0.00     0.046 C 
HETATM    6  C   UNL     1       8.930  11.982  23.806  0.00  0.00     0.038 C 
ENDROOT
BRANCH   1   7
HETATM    7  C   UNL     1       6.522  11.436  24.107  0.00  0.00     0.256 C 
HETATM    8  O   UNL     1       5.938  11.541  25.177  0.00  0.00    -0.267 OA
HETATM    9  N   UNL     1       5.908  11.679  22.871  0.00  0.00    -0.348 N 
HETATM   10  C   UNL     1       6.495  11.430  21.544  0.00  0.00     0.153 C 
BRANCH   9  11
HETATM   11  C   UNL     1       4.486  12.069  22.868  0.00  0.00     0.165 C 
BRANCH  11  12
HETATM   12  C   UNL     1       4.209  13.525  23.246  0.00  0.00    -0.029 A 
HETATM   13  C   UNL     1       2.924  14.005  23.648  0.00  0.00    -0.017 A 
HETATM   14  C   UNL     1       2.831  15.385  23.971  0.00  0.00     0.013 A 
HETATM   15  C   UNL     1       3.919  16.258  23.898  0.00  0.00     0.001 A 
HETATM   16  C   UNL     1       5.147  15.791  23.484  0.00  0.00     0.001 A 
HETATM   17  C   UNL     1       5.280  14.451  23.144  0.00  0.00     0.010 A 
BRANCH  13  18
HETATM   18  C   UNL     1       1.669  13.191  23.694  0.00  0.00    -0.008 A 
HETATM   19  C   UNL     1       1.450  12.125  24.566  0.00  0.00     0.128 A 
HETATM   20  N   UNL     1       0.366  11.303  24.568  0.00  0.00    -0.272 NA
HETATM   21  C   UNL     1      -0.614  11.590  23.692  0.00  0.00     0.116 A 
HETATM   22  C   UNL     1      -0.573  12.681  22.850  0.00  0.00     0.020 A 
HETATM   23  C   UNL     1       0.578  13.474  22.849  0.00  0.00     0.015 A 
ENDBRANCH  13  18
ENDBRANCH  11  12
ENDBRANCH   9  11
ENDBRANCH   1   7
BRANCH   2  24
HETATM   24  O   UNL     1       7.465   8.689  24.709  0.00  0.00    -0.360 OA
HETATM   25  H   UNL     1       7.407   8.499  25.664  0.00  0.00     0.217 HD
ENDBRANCH   2  24
BRANCH   5  26
HETATM   26  C   UNL     1      11.382  12.566  23.408  0.00  0.00     0.172 A 
HETATM   27  N   UNL     1      11.422  13.181  22.177  0.00  0.00    -0.244 N 
HETATM   28  C   UNL     1      12.672  13.759  22.099  0.00  0.00     0.349 A 
HETATM   29  O   UNL     1      13.171  14.428  21.209  0.00  0.00    -0.245 OA
HETATM   30  N   UNL     1      13.295  13.470  23.301  0.00  0.00    -0.226 N 
HETATM   31  N   UNL     1      12.489  12.721  24.092  0.00  0.00    -0.151 NA
HETATM   32  H   UNL     1      14.205  13.797  23.595  0.00  0.00     0.194 HD
BRANCH  27  33
HETATM   33  C   UNL     1      10.467  13.345  21.156  0.00  0.00     0.051 C 
HETATM   34  C   UNL     1       9.600  14.447  21.089  0.00  0.00    -0.035 C 
HETATM   35  C   UNL     1       9.806  15.707  21.887  0.00  0.00     0.050 C 
HETATM   36  C   UNL     1       8.621  14.488  20.076  0.00  0.00     0.009 C 
HETATM   37  C   UNL     1       8.565  13.508  19.088  0.00  0.00     0.001 C 
HETATM   38  C   UNL     1       9.509  12.484  19.081  0.00  0.00     0.002 C 
HETATM   39  C   UNL     1      10.449  12.404  20.109  0.00  0.00     0.031 C 
ENDBRANCH  27  33
ENDBRANCH   5  26
BRANCH   4  40
HETATM   40  O   UNL     1      11.944  10.084  24.706  0.00  0.00    -0.360 OA
HETATM   41  H   UNL     1      11.968   9.494  25.478  0.00  0.00     0.217 HD
ENDBRANCH   4  40
TORSDOF 8
ENDMDL
MODEL 2
REMARK VINA RESULT:    -9.752      1.051      1.884
REMARK INTER + INTRA:         -16.186
REMARK INTER:                 -14.124
REMARK INTRA:                  -2.061
REMARK UNBOUND:                -2.443
REMARK  8 active torsions:
REMARK  status: ('A' for Active; 'I' for Inactive)
REMARK       I    between atoms: C_2  and  N_3 
REMARK    1  A    between atoms: C_2  and  C_18 
REMARK    2  A    between atoms: N_3  and  C_4 
REMARK    3  A    between atoms: C_4  and  C_5 
REMARK    4  A    between atoms: C_6  and  C_7 
REMARK    5  A    between atoms: C_19  and  O_20 
REMARK    6  A    between atoms: C_22  and  O_23 
REMARK    7  A    between atoms: C_24  and  C_25 
REMARK    8  A    between atoms: N_26  and  C_27 
ROOT
HETATM    1  C   UNL     1       8.014  10.939  23.735  0.00  0.00     0.066 C 
HETATM    2  C   UNL     1       8.370   9.835  24.517  0.00  0.00     0.084 C 
HETATM    3  C   UNL     1       9.706   9.495  24.668  0.00  0.00     0.075 C 
HETATM    4  C   UNL     1      10.681  10.205  23.966  0.00  0.00     0.082 C 
HETATM    5  C   UNL     1      10.346  11.231  23.057  0.00  0.00     0.046 C 
HETATM    6  C   UNL     1       8.994  11.591  22.951  0.00  0.00     0.038 C 
ENDROOT
BRANCH   1   7
HETATM    7  C   UNL     1       6.618  11.446  23.676  0.00  0.00     0.256 C 
HETATM    8  O   UNL     1       6.058  11.658  24.742  0.00  0.00    -0.267 OA
HETATM    9  N   UNL     1       6.007  11.653  22.433  0.00  0.00    -0.348 N 
HETATM   10  C   UNL     1       6.556  11.280  21.119  0.00  0.00     0.153 C 
BRANCH   9  11
HETATM   11  C   UNL     1       4.615  12.141  22.418  0.00  0.00     0.165 C 
BRANCH  11  12
HETATM   12  C   UNL     1       4.411  13.549  22.980  0.00  0.00    -0.029 A 
HETATM   13  C   UNL     1       3.195  13.987  23.588  0.00  0.00    -0.017 A 
HETATM   14  C   UNL     1       3.166  15.325  24.064  0.00  0.00     0.013 A 
HETATM   15  C   UNL     1       4.251  16.197  23.948  0.00  0.00     0.001 A 
HETATM   16  C   UNL     1       5.411  15.773  23.338  0.00  0.00     0.001 A 
HETATM   17  C   UNL     1       5.477  14.476  22.844  0.00  0.00     0.010 A 
BRANCH  13  18
HETATM   18  C   UNL     1       1.942  13.178  23.703  0.00  0.00    -0.008 A 
HETATM   19  C   UNL     1       1.769  12.110  24.583  0.00  0.00     0.128 A 
HETATM   20  N   UNL     1       0.684  11.292  24.645  0.00  0.00    -0.272 NA
HETATM   21  C   UNL     1      -0.344  11.586  23.828  0.00  0.00     0.116 A 
HETATM   22  C   UNL     1      -0.348  12.680  22.989  0.00  0.00     0.020 A 
HETATM   23  C   UNL     1       0.805  13.468  22.924  0.00  0.00     0.015 A 
ENDBRANCH  13  18
ENDBRANCH  11  12
ENDBRANCH   9  11
ENDBRANCH   1   7
BRANCH   2  24
HETATM   24  O   UNL     1       7.477   9.045  25.191  0.00  0.00    -0.360 OA
HETATM   25  H   UNL     1       7.887   8.180  25.380  0.00  0.00     0.217 HD
ENDBRANCH   2  24
BRANCH   5  26
HETATM   26  C   UNL     1      11.401  11.732  22.119  0.00  0.00     0.172 A 
HETATM   27  N   UNL     1      11.626  13.036  21.741  0.00  0.00    -0.244 N 
HETATM   28  C   UNL     1      12.601  12.971  20.768  0.00  0.00     0.349 A 
HETATM   29  O   UNL     1      13.145  13.866  20.142  0.00  0.00    -0.245 OA
HETATM   30  N   UNL     1      12.915  11.628  20.639  0.00  0.00    -0.226 N 
HETATM   31  N   UNL     1      12.154  10.876  21.472  0.00  0.00    -0.151 NA
HETATM   32  H   UNL     1      13.637  11.237  20.050  0.00  0.00     0.194 HD
BRANCH  27  33
HETATM   33  C   UNL     1      11.123  14.267  22.201  0.00  0.00     0.051 C 
HETATM   34  C   UNL     1      10.102  14.972  21.542  0.00  0.00    -0.035 C 
HETATM   35  C   UNL     1       9.226  14.353  20.486  0.00  0.00     0.050 C 
HETATM   36  C   UNL     1       9.717  16.236  22.031  0.00  0.00     0.009 C 
HETATM   37  C   UNL     1      10.259  16.750  23.205  0.00  0.00     0.001 C 
HETATM   38  C   UNL     1      11.176  15.993  23.929  0.00  0.00     0.002 C 
HETATM   39  C   UNL     1      11.606  14.763  23.427  0.00  0.00     0.031 C 
ENDBRANCH  27  33
ENDBRANCH   5  26
BRANCH   4  40
HETATM   40  O   UNL     1      11.988   9.875  24.208  0.00  0.00    -0.360 OA
HETATM   41  H   UNL     1      12.279   9.231  23.540  0.00  0.00     0.217 HD
ENDBRANCH   4  40
TORSDOF 8
ENDMDL
MODEL 3
REMARK VINA RESULT:    -9.687      2.321      3.137
REMARK INTER + INTRA:         -16.095
REMARK INTER:                 -14.085
REMARK INTRA:                  -2.010
REMARK UNBOUND:                -2.443
REMARK  8 active torsions:
REMARK  status: ('A' for Active; 'I' for Inactive)
REMARK       I    between atoms: C_2  and  N_3 
REMARK    1  A    between atoms: C_2  and  C_18 
REMARK    2  A    between atoms: N_3  and  C_4 
REMARK    3  A    between atoms: C_4  and  C_5 
REMARK    4  A    between atoms: C_6  and  C_7 
REMARK    5  A    between atoms: C_19  and  O_20 
REMARK    6  A    between atoms: C_22  and  O_23 
REMARK    7  A    between atoms: C_24  and  C_25 
REMARK    8  A    between atoms: N_26  and  C_27 
ROOT
HETATM    1  C   UNL     1       8.253  11.500  23.021  0.00  0.00     0.066 C 
HETATM    2  C   UNL     1       9.024  10.589  22.291  0.00  0.00     0.084 C 
HETATM    3  C   UNL     1      10.194  10.080  22.835  0.00  0.00     0.075 C 
HETATM    4  C   UNL     1      10.640  10.548  24.072  0.00  0.00     0.082 C 
HETATM    5  C   UNL     1       9.963  11.572  24.769  0.00  0.00     0.046 C 
HETATM    6  C   UNL     1       8.758  12.043  24.226  0.00  0.00     0.038 C 
ENDROOT
BRANCH   1   7
HETATM    7  C   UNL     1       6.913  11.946  22.559  0.00  0.00     0.256 C 
HETATM    8  O   UNL     1       6.848  12.462  21.452  0.00  0.00    -0.267 OA
HETATM    9  N   UNL     1       5.798  11.769  23.390  0.00  0.00    -0.348 N 
HETATM   10  C   UNL     1       5.817  11.299  24.785  0.00  0.00     0.153 C 
BRANCH   9  11
HETATM   11  C   UNL     1       4.488  12.241  22.902  0.00  0.00     0.165 C 
BRANCH  11  12
HETATM   12  C   UNL     1       4.102  13.656  23.337  0.00  0.00    -0.029 A 
HETATM   13  C   UNL     1       2.788  14.019  23.763  0.00  0.00    -0.017 A 
HETATM   14  C   UNL     1       2.591  15.375  24.138  0.00  0.00     0.013 A 
HETATM   15  C   UNL     1       3.607  16.332  24.092  0.00  0.00     0.001 A 
HETATM   16  C   UNL     1       4.865  15.977  23.655  0.00  0.00     0.001 A 
HETATM   17  C   UNL     1       5.098  14.665  23.264  0.00  0.00     0.010 A 
BRANCH  13  18
HETATM   18  C   UNL     1       1.600  13.109  23.784  0.00  0.00    -0.008 A 
HETATM   19  C   UNL     1       1.448  12.027  24.652  0.00  0.00     0.128 A 
HETATM   20  N   UNL     1       0.433  11.124  24.633  0.00  0.00    -0.272 NA
HETATM   21  C   UNL     1      -0.549  11.333  23.738  0.00  0.00     0.116 A 
HETATM   22  C   UNL     1      -0.578  12.425  22.896  0.00  0.00     0.020 A 
HETATM   23  C   UNL     1       0.507  13.306  22.918  0.00  0.00     0.015 A 
ENDBRANCH  13  18
ENDBRANCH  11  12
ENDBRANCH   9  11
ENDBRANCH   1   7
BRANCH   2  24
HETATM   24  O   UNL     1       8.696  10.122  21.046  0.00  0.00    -0.360 OA
HETATM   25  H   UNL     1       9.461   9.654  20.663  0.00  0.00     0.217 HD
ENDBRANCH   2  24
BRANCH   5  26
HETATM   26  C   UNL     1      10.655  12.235  25.920  0.00  0.00     0.172 A 
HETATM   27  N   UNL     1      11.221  13.490  25.939  0.00  0.00    -0.244 N 
HETATM   28  C   UNL     1      11.848  13.588  27.163  0.00  0.00     0.349 A 
HETATM   29  O   UNL     1      12.472  14.517  27.651  0.00  0.00    -0.245 OA
HETATM   30  N   UNL     1      11.600  12.390  27.811  0.00  0.00    -0.226 N 
HETATM   31  N   UNL     1      10.873  11.561  27.023  0.00  0.00    -0.151 NA
HETATM   32  H   UNL     1      11.870  12.155  28.756  0.00  0.00     0.194 HD
BRANCH  27  33
HETATM   33  C   UNL     1      11.188  14.569  25.037  0.00  0.00     0.051 C 
HETATM   34  C   UNL     1      12.221  14.837  24.125  0.00  0.00    -0.035 C 
HETATM   35  C   UNL     1      13.299  13.842  23.788  0.00  0.00     0.050 C 
HETATM   36  C   UNL     1      12.139  15.987  23.314  0.00  0.00     0.009 C 
HETATM   37  C   UNL     1      11.010  16.802  23.333  0.00  0.00     0.001 C 
HETATM   38  C   UNL     1       9.930  16.463  24.142  0.00  0.00     0.002 C 
HETATM   39  C   UNL     1      10.021  15.357  24.989  0.00  0.00     0.031 C 
ENDBRANCH  27  33
ENDBRANCH   5  26
BRANCH   4  40
HETATM   40  O   UNL     1      11.760   9.959  24.595  0.00  0.00    -0.360 OA
HETATM   41  H   UNL     1      12.545  10.432  24.271  0.00  0.00     0.217 HD
ENDBRANCH   4  40
TORSDOF 8
ENDMDL
MODEL 4
REMARK VINA RESULT:    -9.301      1.902      3.651
REMARK INTER + INTRA:         -15.550
REMARK INTER:                 -12.739
REMARK INTRA:                  -2.811
REMARK UNBOUND:                -2.443
REMARK  8 active torsions:
REMARK  status: ('A' for Active; 'I' for Inactive)
REMARK       I    between atoms: C_2  and  N_3 
REMARK    1  A    between atoms: C_2  and  C_18 
REMARK    2  A    between atoms: N_3  and  C_4 
REMARK    3  A    between atoms: C_4  and  C_5 
REMARK    4  A    between atoms: C_6  and  C_7 
REMARK    5  A    between atoms: C_19  and  O_20 
REMARK    6  A    between atoms: C_22  and  O_23 
REMARK    7  A    between atoms: C_24  and  C_25 
REMARK    8  A    between atoms: N_26  and  C_27 
ROOT
HETATM    1  C   UNL     1       6.501  11.109  23.986  0.00  0.00     0.066 C 
HETATM    2  C   UNL     1       6.612   9.723  24.140  0.00  0.00     0.084 C 
HETATM    3  C   UNL     1       7.844   9.154  24.428  0.00  0.00     0.075 C 
HETATM    4  C   UNL     1       8.981   9.961  24.475  0.00  0.00     0.082 C 
HETATM    5  C   UNL     1       8.929  11.341  24.183  0.00  0.00     0.046 C 
HETATM    6  C   UNL     1       7.669  11.907  23.937  0.00  0.00     0.038 C 
ENDROOT
BRANCH   1   7
HETATM    7  C   UNL     1       5.186  11.785  23.844  0.00  0.00     0.256 C 
HETATM    8  O   UNL     1       4.841  12.102  22.714  0.00  0.00    -0.267 OA
HETATM    9  N   UNL     1       4.407  12.034  24.982  0.00  0.00    -0.348 N 
HETATM   10  C   UNL     1       4.815  11.822  26.380  0.00  0.00     0.153 C 
BRANCH   9  11
HETATM   11  C   UNL     1       3.115  12.722  24.800  0.00  0.00     0.165 C 
BRANCH  11  12
HETATM   12  C   UNL     1       2.907  13.960  25.675  0.00  0.00    -0.029 A 
HETATM   13  C   UNL     1       3.806  15.069  25.698  0.00  0.00    -0.017 A 
HETATM   14  C   UNL     1       3.471  16.145  26.563  0.00  0.00     0.013 A 
HETATM   15  C   UNL     1       2.332  16.144  27.372  0.00  0.00     0.001 A 
HETATM   16  C   UNL     1       1.484  15.058  27.361  0.00  0.00     0.001 A 
HETATM   17  C   UNL     1       1.782  13.977  26.541  0.00  0.00     0.010 A 
BRANCH  13  18
HETATM   18  C   UNL     1       5.094  15.159  24.941  0.00  0.00    -0.008 A 
HETATM   19  C   UNL     1       6.357  14.970  25.503  0.00  0.00     0.128 A 
HETATM   20  N   UNL     1       7.548  15.141  24.870  0.00  0.00    -0.272 NA
HETATM   21  C   UNL     1       7.501  15.454  23.563  0.00  0.00     0.116 A 
HETATM   22  C   UNL     1       6.320  15.561  22.858  0.00  0.00     0.020 A 
HETATM   23  C   UNL     1       5.117  15.421  23.557  0.00  0.00     0.015 A 
ENDBRANCH  13  18
ENDBRANCH  11  12
ENDBRANCH   9  11
ENDBRANCH   1   7
BRANCH   2  24
HETATM   24  O   UNL     1       5.561   8.850  24.050  0.00  0.00    -0.360 OA
HETATM   25  H   UNL     1       5.542   8.281  24.842  0.00  0.00     0.217 HD
ENDBRANCH   2  24
BRANCH   5  26
HETATM   26  C   UNL     1      10.215  12.074  23.949  0.00  0.00     0.172 A 
HETATM   27  N   UNL     1      10.656  12.620  22.765  0.00  0.00    -0.244 N 
HETATM   28  C   UNL     1      11.939  13.057  23.022  0.00  0.00     0.349 A 
HETATM   29  O   UNL     1      12.734  13.625  22.291  0.00  0.00    -0.245 OA
HETATM   30  N   UNL     1      12.177  12.763  24.354  0.00  0.00    -0.226 N 
HETATM   31  N   UNL     1      11.106  12.143  24.908  0.00  0.00    -0.151 NA
HETATM   32  H   UNL     1      13.006  13.005  24.880  0.00  0.00     0.194 HD
BRANCH  27  33
HETATM   33  C   UNL     1      10.038  12.835  21.519  0.00  0.00     0.051 C 
HETATM   34  C   UNL     1      10.037  11.881  20.490  0.00  0.00    -0.035 C 
HETATM   35  C   UNL     1      10.398  10.435  20.708  0.00  0.00     0.050 C 
HETATM   36  C   UNL     1       9.462  12.213  19.247  0.00  0.00     0.009 C 
HETATM   37  C   UNL     1       8.812  13.430  19.057  0.00  0.00     0.001 C 
HETATM   38  C   UNL     1       8.699  14.323  20.119  0.00  0.00     0.002 C 
HETATM   39  C   UNL     1       9.311  14.027  21.338  0.00  0.00     0.031 C 
ENDBRANCH  27  33
ENDBRANCH   5  26
BRANCH   4  40
HETATM   40  O   UNL     1      10.157   9.359  24.836  0.00  0.00    -0.360 OA
HETATM   41  H   UNL     1       9.968   8.454  25.137  0.00  0.00     0.217 HD
ENDBRANCH   4  40
TORSDOF 8
ENDMDL
MODEL 5
REMARK VINA RESULT:    -9.226      2.456      3.455
REMARK INTER + INTRA:         -15.444
REMARK INTER:                 -13.001
REMARK INTRA:                  -2.443
REMARK UNBOUND:                -2.443
REMARK  8 active torsions:
REMARK  status: ('A' for Active; 'I' for Inactive)
REMARK       I    between atoms: C_2  and  N_3 
REMARK    1  A    between atoms: C_2  and  C_18 
REMARK    2  A    between atoms: N_3  and  C_4 
REMARK    3  A    between atoms: C_4  and  C_5 
REMARK    4  A    between atoms: C_6  and  C_7 
REMARK    5  A    between atoms: C_19  and  O_20 
REMARK    6  A    between atoms: C_22  and  O_23 
REMARK    7  A    between atoms: C_24  and  C_25 
REMARK    8  A    between atoms: N_26  and  C_27 
ROOT
HETATM    1  C   UNL     1       8.537  11.131  23.424  0.00  0.00     0.066 C 
HETATM    2  C   UNL     1       9.333  10.364  22.567  0.00  0.00     0.084 C 
HETATM    3  C   UNL     1      10.620  10.010  22.947  0.00  0.00     0.075 C 
HETATM    4  C   UNL     1      11.142  10.497  24.145  0.00  0.00     0.082 C 
HETATM    5  C   UNL     1      10.420  11.390  24.965  0.00  0.00     0.046 C 
HETATM    6  C   UNL     1       9.105  11.701  24.588  0.00  0.00     0.038 C 
ENDROOT
BRANCH   1   7
HETATM    7  C   UNL     1       7.102  11.395  23.143  0.00  0.00     0.256 C 
HETATM    8  O   UNL     1       6.336  10.445  23.219  0.00  0.00    -0.267 OA
HETATM    9  N   UNL     1       6.688  12.690  22.804  0.00  0.00    -0.348 N 
HETATM   10  C   UNL     1       7.564  13.845  22.546  0.00  0.00     0.153 C 
BRANCH   9  11
HETATM   11  C   UNL     1       5.258  12.907  22.515  0.00  0.00     0.165 C 
BRANCH  11  12
HETATM   12  C   UNL     1       4.527  13.824  23.497  0.00  0.00    -0.029 A 
HETATM   13  C   UNL     1       3.693  13.344  24.553  0.00  0.00    -0.017 A 
HETATM   14  C   UNL     1       3.086  14.325  25.383  0.00  0.00     0.013 A 
HETATM   15  C   UNL     1       3.266  15.697  25.195  0.00  0.00     0.001 A 
HETATM   16  C   UNL     1       4.051  16.150  24.158  0.00  0.00     0.001 A 
HETATM   17  C   UNL     1       4.652  15.226  23.312  0.00  0.00     0.010 A 
BRANCH  13  18
HETATM   18  C   UNL     1       3.361  11.909  24.812  0.00  0.00    -0.008 A 
HETATM   19  C   UNL     1       2.197  11.275  24.374  0.00  0.00     0.128 A 
HETATM   20  N   UNL     1       1.816  10.005  24.674  0.00  0.00    -0.272 NA
HETATM   21  C   UNL     1       2.675   9.271  25.404  0.00  0.00     0.116 A 
HETATM   22  C   UNL     1       3.908   9.738  25.808  0.00  0.00     0.020 A 
HETATM   23  C   UNL     1       4.241  11.064  25.516  0.00  0.00     0.015 A 
ENDBRANCH  13  18
ENDBRANCH  11  12
ENDBRANCH   9  11
ENDBRANCH   1   7
BRANCH   2  24
HETATM   24  O   UNL     1       8.925   9.895  21.347  0.00  0.00    -0.360 OA
HETATM   25  H   UNL     1       8.058   9.457  21.440  0.00  0.00     0.217 HD
ENDBRANCH   2  24
BRANCH   5  26
HETATM   26  C   UNL     1      11.148  12.108  26.060  0.00  0.00     0.172 A 
HETATM   27  N   UNL     1      11.568  13.418  26.059  0.00  0.00    -0.244 N 
HETATM   28  C   UNL     1      12.304  13.566  27.216  0.00  0.00     0.349 A 
HETATM   29  O   UNL     1      12.866  14.551  27.667  0.00  0.00    -0.245 OA
HETATM   30  N   UNL     1      12.259  12.336  27.851  0.00  0.00    -0.226 N 
HETATM   31  N   UNL     1      11.552  11.443  27.116  0.00  0.00    -0.151 NA
HETATM   32  H   UNL     1      12.649  12.117  28.757  0.00  0.00     0.194 HD
BRANCH  27  33
HETATM   33  C   UNL     1      11.322  14.503  25.196  0.00  0.00     0.051 C 
HETATM   34  C   UNL     1      10.151  15.275  25.251  0.00  0.00    -0.035 C 
HETATM   35  C   UNL     1       9.199  15.243  26.417  0.00  0.00     0.050 C 
HETATM   36  C   UNL     1       9.954  16.291  24.295  0.00  0.00     0.009 C 
HETATM   37  C   UNL     1      10.941  16.605  23.365  0.00  0.00     0.001 C 
HETATM   38  C   UNL     1      12.156  15.925  23.394  0.00  0.00     0.002 C 
HETATM   39  C   UNL     1      12.342  14.881  24.302  0.00  0.00     0.031 C 
ENDBRANCH  27  33
ENDBRANCH   5  26
BRANCH   4  40
HETATM   40  O   UNL     1      12.388  10.057  24.506  0.00  0.00    -0.360 OA
HETATM   41  H   UNL     1      12.828  10.751  25.025  0.00  0.00     0.217 HD
ENDBRANCH   4  40
TORSDOF 8
ENDMDL
MODEL 6
REMARK VINA RESULT:    -9.199      1.865      2.859
REMARK INTER + INTRA:         -15.407
REMARK INTER:                 -12.437
REMARK INTRA:                  -2.970
REMARK UNBOUND:                -2.443
REMARK  8 active torsions:
REMARK  status: ('A' for Active; 'I' for Inactive)
REMARK       I    between atoms: C_2  and  N_3 
REMARK    1  A    between atoms: C_2  and  C_18 
REMARK    2  A    between atoms: N_3  and  C_4 
REMARK    3  A    between atoms: C_4  and  C_5 
REMARK    4  A    between atoms: C_6  and  C_7 
REMARK    5  A    between atoms: C_19  and  O_20 
REMARK    6  A    between atoms: C_22  and  O_23 
REMARK    7  A    between atoms: C_24  and  C_25 
REMARK    8  A    between atoms: N_26  and  C_27 
ROOT
HETATM    1  C   UNL     1       8.813  11.161  24.612  0.00  0.00     0.066 C 
HETATM    2  C   UNL     1       9.404   9.894  24.657  0.00  0.00     0.084 C 
HETATM    3  C   UNL     1      10.759   9.751  24.400  0.00  0.00     0.075 C 
HETATM    4  C   UNL     1      11.507  10.863  24.011  0.00  0.00     0.082 C 
HETATM    5  C   UNL     1      10.914  12.129  23.815  0.00  0.00     0.046 C 
HETATM    6  C   UNL     1       9.552  12.264  24.123  0.00  0.00     0.038 C 
ENDROOT
BRANCH   1   7
HETATM    7  C   UNL     1       7.409  11.393  25.041  0.00  0.00     0.256 C 
HETATM    8  O   UNL     1       6.603  10.503  24.811  0.00  0.00    -0.267 OA
HETATM    9  N   UNL     1       7.067  12.596  25.673  0.00  0.00    -0.348 N 
HETATM   10  C   UNL     1       7.939  13.768  25.847  0.00  0.00     0.153 C 
BRANCH   9  11
HETATM   11  C   UNL     1       5.659  12.794  26.068  0.00  0.00     0.165 C 
BRANCH  11  12
HETATM   12  C   UNL     1       4.939  13.941  25.357  0.00  0.00    -0.029 A 
HETATM   13  C   UNL     1       4.567  13.905  23.978  0.00  0.00    -0.017 A 
HETATM   14  C   UNL     1       3.900  15.051  23.467  0.00  0.00     0.013 A 
HETATM   15  C   UNL     1       3.618  16.177  24.244  0.00  0.00     0.001 A 
HETATM   16  C   UNL     1       4.003  16.212  25.566  0.00  0.00     0.001 A 
HETATM   17  C   UNL     1       4.672  15.119  26.103  0.00  0.00     0.010 A 
BRANCH  13  18
HETATM   18  C   UNL     1       4.878  12.796  23.024  0.00  0.00    -0.008 A 
HETATM   19  C   UNL     1       4.062  11.684  22.811  0.00  0.00     0.128 A 
HETATM   20  N   UNL     1       4.359  10.612  22.029  0.00  0.00    -0.272 NA
HETATM   21  C   UNL     1       5.517  10.661  21.346  0.00  0.00     0.116 A 
HETATM   22  C   UNL     1       6.364  11.749  21.380  0.00  0.00     0.020 A 
HETATM   23  C   UNL     1       6.042  12.812  22.231  0.00  0.00     0.015 A 
ENDBRANCH  13  18
ENDBRANCH  11  12
ENDBRANCH   9  11
ENDBRANCH   1   7
BRANCH   2  24
HETATM   24  O   UNL     1       8.734   8.740  24.969  0.00  0.00    -0.360 OA
HETATM   25  H   UNL     1       8.238   8.867  25.799  0.00  0.00     0.217 HD
ENDBRANCH   2  24
BRANCH   5  26
HETATM   26  C   UNL     1      11.701  13.188  23.106  0.00  0.00     0.172 A 
HETATM   27  N   UNL     1      11.503  13.656  21.827  0.00  0.00    -0.244 N 
HETATM   28  C   UNL     1      12.555  14.514  21.586  0.00  0.00     0.349 A 
HETATM   29  O   UNL     1      12.808  15.185  20.598  0.00  0.00    -0.245 OA
HETATM   30  N   UNL     1      13.308  14.523  22.748  0.00  0.00    -0.226 N 
HETATM   31  N   UNL     1      12.774  13.688  23.672  0.00  0.00    -0.151 NA
HETATM   32  H   UNL     1      14.121  15.096  22.928  0.00  0.00     0.194 HD
BRANCH  27  33
HETATM   33  C   UNL     1      10.474  13.464  20.886  0.00  0.00     0.051 C 
HETATM   34  C   UNL     1      10.366  12.311  20.093  0.00  0.00    -0.035 C 
HETATM   35  C   UNL     1      11.122  11.041  20.381  0.00  0.00     0.050 C 
HETATM   36  C   UNL     1       9.349  12.241  19.120  0.00  0.00     0.009 C 
HETATM   37  C   UNL     1       8.396  13.248  19.001  0.00  0.00     0.001 C 
HETATM   38  C   UNL     1       8.426  14.331  19.876  0.00  0.00     0.002 C 
HETATM   39  C   UNL     1       9.460  14.438  20.808  0.00  0.00     0.031 C 
ENDBRANCH  27  33
ENDBRANCH   5  26
BRANCH   4  40
HETATM   40  O   UNL     1      12.854  10.680  23.841  0.00  0.00    -0.360 OA
HETATM   41  H   UNL     1      13.080  10.858  22.912  0.00  0.00     0.217 HD
ENDBRANCH   4  40
TORSDOF 8
ENDMDL
MODEL 7
REMARK VINA RESULT:    -9.187      1.792      3.169
REMARK INTER + INTRA:         -15.390
REMARK INTER:                 -13.442
REMARK INTRA:                  -1.948
REMARK UNBOUND:                -2.443
REMARK  8 active torsions:
REMARK  status: ('A' for Active; 'I' for Inactive)
REMARK       I    between atoms: C_2  and  N_3 
REMARK    1  A    between atoms: C_2  and  C_18 
REMARK    2  A    between atoms: N_3  and  C_4 
REMARK    3  A    between atoms: C_4  and  C_5 
REMARK    4  A    between atoms: C_6  and  C_7 
REMARK    5  A    between atoms: C_19  and  O_20 
REMARK    6  A    between atoms: C_22  and  O_23 
REMARK    7  A    between atoms: C_24  and  C_25 
REMARK    8  A    between atoms: N_26  and  C_27 
ROOT
HETATM    1  C   UNL     1       7.622  10.896  24.062  0.00  0.00     0.066 C 
HETATM    2  C   UNL     1       8.053   9.601  24.368  0.00  0.00     0.084 C 
HETATM    3  C   UNL     1       9.405   9.342  24.537  0.00  0.00     0.075 C 
HETATM    4  C   UNL     1      10.334  10.359  24.316  0.00  0.00     0.082 C 
HETATM    5  C   UNL     1       9.946  11.639  23.866  0.00  0.00     0.046 C 
HETATM    6  C   UNL     1       8.571  11.896  23.743  0.00  0.00     0.038 C 
ENDROOT
BRANCH   1   7
HETATM    7  C   UNL     1       6.183  11.263  24.035  0.00  0.00     0.256 C 
HETATM    8  O   UNL     1       5.593  11.281  25.106  0.00  0.00    -0.267 OA
HETATM    9  N   UNL     1       5.566  11.564  22.813  0.00  0.00    -0.348 N 
HETATM   10  C   UNL     1       6.164  11.419  21.476  0.00  0.00     0.153 C 
BRANCH   9  11
HETATM   11  C   UNL     1       4.131  11.907  22.827  0.00  0.00     0.165 C 
BRANCH  11  12
HETATM   12  C   UNL     1       3.807  13.335  23.268  0.00  0.00    -0.029 A 
HETATM   13  C   UNL     1       2.507  13.755  23.687  0.00  0.00    -0.017 A 
HETATM   14  C   UNL     1       2.369  15.116  24.069  0.00  0.00     0.013 A 
HETATM   15  C   UNL     1       3.428  16.027  24.037  0.00  0.00     0.001 A 
HETATM   16  C   UNL     1       4.671  15.618  23.607  0.00  0.00     0.001 A 
HETATM   17  C   UNL     1       4.847  14.298  23.209  0.00  0.00     0.010 A 
BRANCH  13  18
HETATM   18  C   UNL     1       1.279  12.900  23.694  0.00  0.00    -0.008 A 
HETATM   19  C   UNL     1       1.076  11.814  24.546  0.00  0.00     0.128 A 
HETATM   20  N   UNL     1       0.021  10.958  24.513  0.00  0.00    -0.272 NA
HETATM   21  C   UNL     1      -0.949  11.225  23.621  0.00  0.00     0.116 A 
HETATM   22  C   UNL     1      -0.927  12.330  22.795  0.00  0.00     0.020 A 
HETATM   23  C   UNL     1       0.197  13.160  22.830  0.00  0.00     0.015 A 
ENDBRANCH  13  18
ENDBRANCH  11  12
ENDBRANCH   9  11
ENDBRANCH   1   7
BRANCH   2  24
HETATM   24  O   UNL     1       7.217   8.530  24.542  0.00  0.00    -0.360 OA
HETATM   25  H   UNL     1       7.199   7.996  23.726  0.00  0.00     0.217 HD
ENDBRANCH   2  24
BRANCH   5  26
HETATM   26  C   UNL     1      11.001  12.572  23.356  0.00  0.00     0.172 A 
HETATM   27  N   UNL     1      11.765  13.446  24.095  0.00  0.00    -0.244 N 
HETATM   28  C   UNL     1      12.482  14.175  23.170  0.00  0.00     0.349 A 
HETATM   29  O   UNL     1      13.308  15.057  23.338  0.00  0.00    -0.245 OA
HETATM   30  N   UNL     1      12.115  13.676  21.932  0.00  0.00    -0.226 N 
HETATM   31  N   UNL     1      11.189  12.695  22.065  0.00  0.00    -0.151 NA
HETATM   32  H   UNL     1      12.501  13.951  21.039  0.00  0.00     0.194 HD
BRANCH  27  33
HETATM   33  C   UNL     1      11.950  13.622  25.479  0.00  0.00     0.051 C 
HETATM   34  C   UNL     1      11.093  14.401  26.273  0.00  0.00    -0.035 C 
HETATM   35  C   UNL     1       9.733  14.854  25.815  0.00  0.00     0.050 C 
HETATM   36  C   UNL     1      11.402  14.587  27.636  0.00  0.00     0.009 C 
HETATM   37  C   UNL     1      12.481  13.935  28.225  0.00  0.00     0.001 C 
HETATM   38  C   UNL     1      13.254  13.060  27.467  0.00  0.00     0.002 C 
HETATM   39  C   UNL     1      12.991  12.909  26.104  0.00  0.00     0.031 C 
ENDBRANCH  27  33
ENDBRANCH   5  26
BRANCH   4  40
HETATM   40  O   UNL     1      11.649  10.068  24.569  0.00  0.00    -0.360 OA
HETATM   41  H   UNL     1      11.712   9.631  25.435  0.00  0.00     0.217 HD
ENDBRANCH   4  40
TORSDOF 8
ENDMDL
MODEL 8
REMARK VINA RESULT:    -9.114      2.942      8.108
REMARK INTER + INTRA:         -15.287
REMARK INTER:                 -12.765
REMARK INTRA:                  -2.522
REMARK UNBOUND:                -2.443
REMARK  8 active torsions:
REMARK  status: ('A' for Active; 'I' for Inactive)
REMARK       I    between atoms: C_2  and  N_3 
REMARK    1  A    between atoms: C_2  and  C_18 
REMARK    2  A    between atoms: N_3  and  C_4 
REMARK    3  A    between atoms: C_4  and  C_5 
REMARK    4  A    between atoms: C_6  and  C_7 
REMARK    5  A    between atoms: C_19  and  O_20 
REMARK    6  A    between atoms: C_22  and  O_23 
REMARK    7  A    between atoms: C_24  and  C_25 
REMARK    8  A    between atoms: N_26  and  C_27 
ROOT
HETATM    1  C   UNL     1       5.963  10.746  21.706  0.00  0.00     0.066 C 
HETATM    2  C   UNL     1       5.740   9.404  22.030  0.00  0.00     0.084 C 
HETATM    3  C   UNL     1       4.615   9.044  22.758  0.00  0.00     0.075 C 
HETATM    4  C   UNL     1       3.758  10.036  23.236  0.00  0.00     0.082 C 
HETATM    5  C   UNL     1       4.029  11.408  23.051  0.00  0.00     0.046 C 
HETATM    6  C   UNL     1       5.146  11.753  22.275  0.00  0.00     0.038 C 
ENDROOT
BRANCH   1   7
HETATM    7  C   UNL     1       7.056  11.166  20.791  0.00  0.00     0.256 C 
HETATM    8  O   UNL     1       6.929  10.885  19.607  0.00  0.00    -0.267 OA
HETATM    9  N   UNL     1       8.167  11.847  21.304  0.00  0.00    -0.348 N 
HETATM   10  C   UNL     1       8.462  12.087  22.726  0.00  0.00     0.153 C 
BRANCH   9  11
HETATM   11  C   UNL     1       9.239  12.231  20.365  0.00  0.00     0.165 C 
BRANCH  11  12
HETATM   12  C   UNL     1      10.663  12.028  20.884  0.00  0.00    -0.029 A 
HETATM   13  C   UNL     1      11.419  13.050  21.534  0.00  0.00    -0.017 A 
HETATM   14  C   UNL     1      12.729  12.702  21.961  0.00  0.00     0.013 A 
HETATM   15  C   UNL     1      13.283  11.436  21.759  0.00  0.00     0.001 A 
HETATM   16  C   UNL     1      12.555  10.464  21.108  0.00  0.00     0.001 A 
HETATM   17  C   UNL     1      11.275  10.767  20.660  0.00  0.00     0.010 A 
BRANCH  13  18
HETATM   18  C   UNL     1      10.970  14.463  21.742  0.00  0.00    -0.008 A 
HETATM   19  C   UNL     1      10.594  15.331  20.717  0.00  0.00     0.128 A 
HETATM   20  N   UNL     1      10.277  16.646  20.859  0.00  0.00    -0.272 NA
HETATM   21  C   UNL     1      10.259  17.134  22.112  0.00  0.00     0.116 A 
HETATM   22  C   UNL     1      10.503  16.356  23.224  0.00  0.00     0.020 A 
HETATM   23  C   UNL     1      10.868  15.021  23.031  0.00  0.00     0.015 A 
ENDBRANCH  13  18
ENDBRANCH  11  12
ENDBRANCH   9  11
ENDBRANCH   1   7
BRANCH   2  24
HETATM   24  O   UNL     1       6.560   8.373  21.656  0.00  0.00    -0.360 OA
HETATM   25  H   UNL     1       7.378   8.400  22.186  0.00  0.00     0.217 HD
ENDBRANCH   2  24
BRANCH   5  26
HETATM   26  C   UNL     1       3.247  12.408  23.846  0.00  0.00     0.172 A 
HETATM   27  N   UNL     1       3.742  13.329  24.741  0.00  0.00    -0.244 N 
HETATM   28  C   UNL     1       2.632  13.916  25.312  0.00  0.00     0.349 A 
HETATM   29  O   UNL     1       2.558  14.801  26.148  0.00  0.00    -0.245 OA
HETATM   30  N   UNL     1       1.538  13.322  24.705  0.00  0.00    -0.226 N 
HETATM   31  N   UNL     1       1.936  12.384  23.812  0.00  0.00    -0.151 NA
HETATM   32  H   UNL     1       0.569  13.566  24.852  0.00  0.00     0.194 HD
BRANCH  27  33
HETATM   33  C   UNL     1       5.047  13.752  25.058  0.00  0.00     0.051 C 
HETATM   34  C   UNL     1       5.704  14.786  24.373  0.00  0.00    -0.035 C 
HETATM   35  C   UNL     1       4.991  15.756  23.468  0.00  0.00     0.050 C 
HETATM   36  C   UNL     1       7.039  15.089  24.706  0.00  0.00     0.009 C 
HETATM   37  C   UNL     1       7.681  14.448  25.763  0.00  0.00     0.001 C 
HETATM   38  C   UNL     1       6.985  13.514  26.525  0.00  0.00     0.002 C 
HETATM   39  C   UNL     1       5.680  13.168  26.172  0.00  0.00     0.031 C 
ENDBRANCH  27  33
ENDBRANCH   5  26
BRANCH   4  40
HETATM   40  O   UNL     1       2.625   9.621  23.885  0.00  0.00    -0.360 OA
HETATM   41  H   UNL     1       1.927  10.285  23.754  0.00  0.00     0.217 HD
ENDBRANCH   4  40
TORSDOF 8
ENDMDL
MODEL 9
REMARK VINA RESULT:    -9.095      2.367      3.895
REMARK INTER + INTRA:         -15.260
REMARK INTER:                 -12.291
REMARK INTRA:                  -2.969
REMARK UNBOUND:                -2.443
REMARK  8 active torsions:
REMARK  status: ('A' for Active; 'I' for Inactive)
REMARK       I    between atoms: C_2  and  N_3 
REMARK    1  A    between atoms: C_2  and  C_18 
REMARK    2  A    between atoms: N_3  and  C_4 
REMARK    3  A    between atoms: C_4  and  C_5 
REMARK    4  A    between atoms: C_6  and  C_7 
REMARK    5  A    between atoms: C_19  and  O_20 
REMARK    6  A    between atoms: C_22  and  O_23 
REMARK    7  A    between atoms: C_24  and  C_25 
REMARK    8  A    between atoms: N_26  and  C_27 
ROOT
HETATM    1  C   UNL     1       8.538  12.964  25.069  0.00  0.00     0.066 C 
HETATM    2  C   UNL     1       9.705  12.614  25.755  0.00  0.00     0.084 C 
HETATM    3  C   UNL     1      10.872  13.335  25.550  0.00  0.00     0.075 C 
HETATM    4  C   UNL     1      10.895  14.351  24.594  0.00  0.00     0.082 C 
HETATM    5  C   UNL     1       9.777  14.636  23.782  0.00  0.00     0.046 C 
HETATM    6  C   UNL     1       8.592  13.927  24.033  0.00  0.00     0.038 C 
ENDROOT
BRANCH   1   7
HETATM    7  C   UNL     1       7.226  12.337  25.373  0.00  0.00     0.256 C 
HETATM    8  O   UNL     1       7.119  11.137  25.158  0.00  0.00    -0.267 OA
HETATM    9  N   UNL     1       6.181  13.122  25.878  0.00  0.00    -0.348 N 
HETATM   10  C   UNL     1       6.183  14.587  26.020  0.00  0.00     0.153 C 
BRANCH   9  11
HETATM   11  C   UNL     1       4.889  12.465  26.151  0.00  0.00     0.165 C 
BRANCH  11  12
HETATM   12  C   UNL     1       3.703  13.000  25.347  0.00  0.00    -0.029 A 
HETATM   13  C   UNL     1       3.522  12.757  23.951  0.00  0.00    -0.017 A 
HETATM   14  C   UNL     1       2.366  13.322  23.350  0.00  0.00     0.013 A 
HETATM   15  C   UNL     1       1.439  14.091  24.057  0.00  0.00     0.001 A 
HETATM   16  C   UNL     1       1.636  14.341  25.398  0.00  0.00     0.001 A 
HETATM   17  C   UNL     1       2.762  13.821  26.023  0.00  0.00     0.010 A 
BRANCH  13  18
HETATM   18  C   UNL     1       4.477  12.017  23.068  0.00  0.00    -0.008 A 
HETATM   19  C   UNL     1       4.473  10.634  22.883  0.00  0.00     0.128 A 
HETATM   20  N   UNL     1       5.384   9.920  22.169  0.00  0.00    -0.272 NA
HETATM   21  C   UNL     1       6.336  10.621  21.528  0.00  0.00     0.116 A 
HETATM   22  C   UNL     1       6.389  11.999  21.537  0.00  0.00     0.020 A 
HETATM   23  C   UNL     1       5.460  12.692  22.318  0.00  0.00     0.015 A 
ENDBRANCH  13  18
ENDBRANCH  11  12
ENDBRANCH   9  11
ENDBRANCH   1   7
BRANCH   2  24
HETATM   24  O   UNL     1       9.790  11.593  26.664  0.00  0.00    -0.360 OA
HETATM   25  H   UNL     1      10.219  11.917  27.477  0.00  0.00     0.217 HD
ENDBRANCH   2  24
BRANCH   5  26
HETATM   26  C   UNL     1       9.965  15.513  22.582  0.00  0.00     0.172 A 
HETATM   27  N   UNL     1      10.678  15.221  21.442  0.00  0.00    -0.244 N 
HETATM   28  C   UNL     1      10.673  16.383  20.700  0.00  0.00     0.349 A 
HETATM   29  O   UNL     1      11.158  16.616  19.605  0.00  0.00    -0.245 OA
HETATM   30  N   UNL     1       9.936  17.296  21.436  0.00  0.00    -0.226 N 
HETATM   31  N   UNL     1       9.518  16.746  22.602  0.00  0.00    -0.151 NA
HETATM   32  H   UNL     1       9.689  18.233  21.149  0.00  0.00     0.194 HD
BRANCH  27  33
HETATM   33  C   UNL     1      11.268  14.038  20.958  0.00  0.00     0.051 C 
HETATM   34  C   UNL     1      10.548  13.051  20.265  0.00  0.00    -0.035 C 
HETATM   35  C   UNL     1       9.177  13.287  19.687  0.00  0.00     0.050 C 
HETATM   36  C   UNL     1      11.203  11.862  19.887  0.00  0.00     0.009 C 
HETATM   37  C   UNL     1      12.569  11.694  20.101  0.00  0.00     0.001 C 
HETATM   38  C   UNL     1      13.308  12.726  20.671  0.00  0.00     0.002 C 
HETATM   39  C   UNL     1      12.660  13.887  21.098  0.00  0.00     0.031 C 
ENDBRANCH  27  33
ENDBRANCH   5  26
BRANCH   4  40
HETATM   40  O   UNL     1      12.051  15.079  24.485  0.00  0.00    -0.360 OA
HETATM   41  H   UNL     1      12.709  14.718  25.103  0.00  0.00     0.217 HD
ENDBRANCH   4  40
TORSDOF 8
ENDMDL
