MODEL 1
REMARK VINA RESULT:    -9.905      0.000      0.000
REMARK INTER + INTRA:         -12.785
REMARK INTER:                 -13.116
REMARK INTRA:                   0.331
REMARK UNBOUND:                -0.274
REMARK  5 active torsions:
REMARK  status: ('A' for Active; 'I' for Inactive)
REMARK    1  A    between atoms: C_7  and  N_10 
REMARK       I    between atoms: N_10  and  C_12 
REMARK    2  A    between atoms: C_12  and  C_14 
REMARK    3  A    between atoms: C_16  and  O_17 
REMARK    4  A    between atoms: C_24  and  C_25 
REMARK    5  A    between atoms: C_25  and  C_26 
ROOT
HETATM    1  C   UNL     1      -0.230  10.744  25.953  0.00  0.00     0.066 A 
HETATM    2  C   UNL     1       1.020  10.970  25.318  0.00  0.00     0.035 A 
HETATM    3  C   UNL     1      -1.388  11.155  25.290  0.00  0.00     0.083 A 
HETATM    4  C   UNL     1      -1.352  11.864  24.079  0.00  0.00     0.069 A 
HETATM    5  C   UNL     1      -0.101  12.106  23.513  0.00  0.00     0.065 A 
HETATM    6  C   UNL     1       1.090  11.685  24.099  0.00  0.00     0.020 A 
HETATM    7  N   UNL     1       0.263  12.723  22.348  0.00  0.00    -0.277 N 
HETATM    8  H   UNL     1      -0.344  13.138  21.651  0.00  0.00     0.189 HD
HETATM    9  N   UNL     1       1.581  12.744  22.122  0.00  0.00    -0.178 NA
HETATM   10  C   UNL     1       2.108  12.149  23.208  0.00  0.00     0.071 A 
ENDROOT
BRANCH   1  11
HETATM   11  C   UNL     1      -0.193   9.899  27.200  0.00  0.00     0.260 C 
HETATM   12  N   UNL     1       0.811   8.923  27.439  0.00  0.00    -0.318 N 
HETATM   13  C   UNL     1       2.008   8.818  26.604  0.00  0.00     0.159 C 
HETATM   14  O   UNL     1      -1.131  10.122  27.975  0.00  0.00    -0.267 OA
BRANCH  12  15
HETATM   15  C   UNL     1       0.711   7.984  28.550  0.00  0.00     0.039 A 
HETATM   16  C   UNL     1       1.765   7.795  29.459  0.00  0.00     0.069 A 
HETATM   17  C   UNL     1       1.586   6.940  30.541  0.00  0.00     0.107 A 
HETATM   18  O   UNL     1       2.507   6.682  31.509  0.00  0.00    -0.323 OA
HETATM   19  C   UNL     1       0.406   6.274  30.757  0.00  0.00     0.105 A 
HETATM   20  C   UNL     1       1.782   5.748  32.336  0.00  0.00     0.352 A 
HETATM   21  O   UNL     1       0.434   5.510  31.880  0.00  0.00    -0.323 OA
HETATM   22  C   UNL     1      -0.656   6.416  29.900  0.00  0.00     0.042 A 
HETATM   23  C   UNL     1      -0.497   7.267  28.793  0.00  0.00     0.032 A 
ENDBRANCH  12  15
ENDBRANCH   1  11
BRANCH   3  24
HETATM   24  O   UNL     1      -2.631  10.858  25.773  0.00  0.00    -0.360 OA
HETATM   25  H   UNL     1      -2.536  10.035  26.280  0.00  0.00     0.217 HD
ENDBRANCH   3  24
BRANCH  10  26
HETATM   26  C   UNL     1       3.592  12.018  23.317  0.00  0.00     0.100 C 
BRANCH  26  27
HETATM   27  C   UNL     1       4.111  13.284  23.965  0.00  0.00    -0.052 A 
HETATM   28  C   UNL     1       3.210  14.206  24.516  0.00  0.00     0.007 A 
HETATM   29  C   UNL     1       3.674  15.325  25.205  0.00  0.00     0.001 A 
HETATM   30  C   UNL     1       5.041  15.558  25.327  0.00  0.00     0.007 A 
HETATM   31  C   UNL     1       5.963  14.685  24.737  0.00  0.00    -0.061 A 
HETATM   32  C   UNL     1       5.491  13.543  24.072  0.00  0.00     0.014 A 
HETATM   33  C   UNL     1       7.433  14.991  24.777  0.00  0.00     0.048 C 
ENDBRANCH  26  27
ENDBRANCH  10  26
TORSDOF 5
ENDMDL
MODEL 2
REMARK VINA RESULT:    -9.706      3.687      7.995
REMARK INTER + INTRA:         -12.533
REMARK INTER:                 -12.093
REMARK INTRA:                  -0.441
REMARK UNBOUND:                -0.274
REMARK  5 active torsions:
REMARK  status: ('A' for Active; 'I' for Inactive)
REMARK    1  A    between atoms: C_7  and  N_10 
REMARK       I    between atoms: N_10  and  C_12 
REMARK    2  A    between atoms: C_12  and  C_14 
REMARK    3  A    between atoms: C_16  and  O_17 
REMARK    4  A    between atoms: C_24  and  C_25 
REMARK    5  A    between atoms: C_25  and  C_26 
ROOT
HETATM    1  C   UNL     1       0.996  12.570  24.271  0.00  0.00     0.066 A 
HETATM    2  C   UNL     1       0.410  12.019  25.441  0.00  0.00     0.035 A 
HETATM    3  C   UNL     1       0.230  12.597  23.104  0.00  0.00     0.083 A 
HETATM    4  C   UNL     1      -1.044  12.014  23.025  0.00  0.00     0.069 A 
HETATM    5  C   UNL     1      -1.563  11.443  24.186  0.00  0.00     0.065 A 
HETATM    6  C   UNL     1      -0.871  11.420  25.394  0.00  0.00     0.020 A 
HETATM    7  N   UNL     1      -2.764  10.841  24.441  0.00  0.00    -0.277 N 
HETATM    8  H   UNL     1      -3.534  10.695  23.798  0.00  0.00     0.189 HD
HETATM    9  N   UNL     1      -2.917  10.428  25.704  0.00  0.00    -0.178 NA
HETATM   10  C   UNL     1      -1.748  10.737  26.293  0.00  0.00     0.071 A 
ENDROOT
BRANCH   1  11
HETATM   11  C   UNL     1       2.325  13.255  24.458  0.00  0.00     0.260 C 
HETATM   12  N   UNL     1       3.484  12.574  24.914  0.00  0.00    -0.318 N 
HETATM   13  C   UNL     1       3.537  11.115  25.022  0.00  0.00     0.159 C 
HETATM   14  O   UNL     1       2.297  14.465  24.201  0.00  0.00    -0.267 OA
BRANCH  12  15
HETATM   15  C   UNL     1       4.698  13.295  25.279  0.00  0.00     0.039 A 
HETATM   16  C   UNL     1       5.680  13.622  24.330  0.00  0.00     0.069 A 
HETATM   17  C   UNL     1       6.781  14.375  24.722  0.00  0.00     0.107 A 
HETATM   18  O   UNL     1       7.793  14.785  23.909  0.00  0.00    -0.323 OA
HETATM   19  C   UNL     1       6.942  14.817  26.011  0.00  0.00     0.105 A 
HETATM   20  C   UNL     1       8.625  15.501  24.845  0.00  0.00     0.352 A 
HETATM   21  O   UNL     1       8.072  15.552  26.176  0.00  0.00    -0.323 OA
HETATM   22  C   UNL     1       6.018  14.523  26.982  0.00  0.00     0.042 A 
HETATM   23  C   UNL     1       4.900  13.756  26.613  0.00  0.00     0.032 A 
ENDBRANCH  12  15
ENDBRANCH   1  11
BRANCH   3  24
HETATM   24  O   UNL     1       0.672  13.226  21.975  0.00  0.00    -0.360 OA
HETATM   25  H   UNL     1      -0.090  13.714  21.620  0.00  0.00     0.217 HD
ENDBRANCH   3  24
BRANCH  10  26
HETATM   26  C   UNL     1      -1.544  10.389  27.732  0.00  0.00     0.100 C 
BRANCH  26  27
HETATM   27  C   UNL     1      -0.508   9.285  27.786  0.00  0.00    -0.052 A 
HETATM   28  C   UNL     1       0.378   9.105  26.716  0.00  0.00     0.007 A 
HETATM   29  C   UNL     1       1.401   8.162  26.793  0.00  0.00     0.001 A 
HETATM   30  C   UNL     1       1.534   7.362  27.924  0.00  0.00     0.007 A 
HETATM   31  C   UNL     1       0.628   7.480  28.985  0.00  0.00    -0.061 A 
HETATM   32  C   UNL     1      -0.381   8.453  28.916  0.00  0.00     0.014 A 
HETATM   33  C   UNL     1       0.707   6.546  30.159  0.00  0.00     0.048 C 
ENDBRANCH  26  27
ENDBRANCH  10  26
TORSDOF 5
ENDMDL
MODEL 3
REMARK VINA RESULT:    -9.570      4.711      5.873
REMARK INTER + INTRA:         -12.361
REMARK INTER:                 -11.419
REMARK INTRA:                  -0.942
REMARK UNBOUND:                -0.274
REMARK  5 active torsions:
REMARK  status: ('A' for Active; 'I' for Inactive)
REMARK    1  A    between atoms: C_7  and  N_10 
REMARK       I    between atoms: N_10  and  C_12 
REMARK    2  A    between atoms: C_12  and  C_14 
REMARK    3  A    between atoms: C_16  and  O_17 
REMARK    4  A    between atoms: C_24  and  C_25 
REMARK    5  A    between atoms: C_25  and  C_26 
ROOT
HETATM    1  C   UNL     1       1.712   8.275  24.634  0.00  0.00     0.066 A 
HETATM    2  C   UNL     1       1.799   9.550  24.015  0.00  0.00     0.035 A 
HETATM    3  C   UNL     1       0.704   8.071  25.579  0.00  0.00     0.083 A 
HETATM    4  C   UNL     1      -0.150   9.101  26.004  0.00  0.00     0.069 A 
HETATM    5  C   UNL     1      -0.000  10.350  25.403  0.00  0.00     0.065 A 
HETATM    6  C   UNL     1       0.954  10.609  24.423  0.00  0.00     0.020 A 
HETATM    7  N   UNL     1      -0.686  11.522  25.565  0.00  0.00    -0.277 N 
HETATM    8  H   UNL     1      -1.467  11.702  26.185  0.00  0.00     0.189 HD
HETATM    9  N   UNL     1      -0.264  12.522  24.782  0.00  0.00    -0.178 NA
HETATM   10  C   UNL     1       0.770  11.992  24.104  0.00  0.00     0.071 A 
ENDROOT
BRANCH   1  11
HETATM   11  C   UNL     1       2.600   7.201  24.062  0.00  0.00     0.260 C 
HETATM   12  N   UNL     1       3.738   6.698  24.746  0.00  0.00    -0.318 N 
HETATM   13  C   UNL     1       4.007   7.019  26.148  0.00  0.00     0.159 C 
HETATM   14  O   UNL     1       2.256   6.825  22.934  0.00  0.00    -0.267 OA
BRANCH  12  15
HETATM   15  C   UNL     1       4.692   5.812  24.089  0.00  0.00     0.039 A 
HETATM   16  C   UNL     1       6.030   6.185  23.882  0.00  0.00     0.069 A 
HETATM   17  C   UNL     1       6.912   5.271  23.316  0.00  0.00     0.107 A 
HETATM   18  O   UNL     1       8.235   5.484  23.080  0.00  0.00    -0.323 OA
HETATM   19  C   UNL     1       6.519   4.006  22.955  0.00  0.00     0.105 A 
HETATM   20  C   UNL     1       8.618   4.223  22.496  0.00  0.00     0.352 A 
HETATM   21  O   UNL     1       7.539   3.268  22.442  0.00  0.00    -0.323 OA
HETATM   22  C   UNL     1       5.224   3.588  23.128  0.00  0.00     0.042 A 
HETATM   23  C   UNL     1       4.311   4.497  23.690  0.00  0.00     0.032 A 
ENDBRANCH  12  15
ENDBRANCH   1  11
BRANCH   3  24
HETATM   24  O   UNL     1       0.474   6.840  26.123  0.00  0.00    -0.360 OA
HETATM   25  H   UNL     1       1.043   6.218  25.640  0.00  0.00     0.217 HD
ENDBRANCH   3  24
BRANCH  10  26
HETATM   26  C   UNL     1       1.519  12.847  23.136  0.00  0.00     0.100 C 
BRANCH  26  27
HETATM   27  C   UNL     1       2.860  13.172  23.762  0.00  0.00    -0.052 A 
HETATM   28  C   UNL     1       3.931  12.279  23.622  0.00  0.00     0.007 A 
HETATM   29  C   UNL     1       5.196  12.608  24.104  0.00  0.00     0.001 A 
HETATM   30  C   UNL     1       5.403  13.817  24.761  0.00  0.00     0.007 A 
HETATM   31  C   UNL     1       4.339  14.704  24.967  0.00  0.00    -0.061 A 
HETATM   32  C   UNL     1       3.074  14.381  24.451  0.00  0.00     0.014 A 
HETATM   33  C   UNL     1       4.538  15.958  25.768  0.00  0.00     0.048 C 
ENDBRANCH  26  27
ENDBRANCH  10  26
TORSDOF 5
ENDMDL
MODEL 4
REMARK VINA RESULT:    -9.526      3.350      4.461
REMARK INTER + INTRA:         -12.307
REMARK INTER:                 -11.661
REMARK INTRA:                  -0.645
REMARK UNBOUND:                -0.274
REMARK  5 active torsions:
REMARK  status: ('A' for Active; 'I' for Inactive)
REMARK    1  A    between atoms: C_7  and  N_10 
REMARK       I    between atoms: N_10  and  C_12 
REMARK    2  A    between atoms: C_12  and  C_14 
REMARK    3  A    between atoms: C_16  and  O_17 
REMARK    4  A    between atoms: C_24  and  C_25 
REMARK    5  A    between atoms: C_25  and  C_26 
ROOT
HETATM    1  C   UNL     1       0.913   9.524  25.686  0.00  0.00     0.066 A 
HETATM    2  C   UNL     1       0.976  10.499  24.655  0.00  0.00     0.035 A 
HETATM    3  C   UNL     1      -0.341   9.193  26.201  0.00  0.00     0.083 A 
HETATM    4  C   UNL     1      -1.515   9.855  25.809  0.00  0.00     0.069 A 
HETATM    5  C   UNL     1      -1.402  10.838  24.827  0.00  0.00     0.065 A 
HETATM    6  C   UNL     1      -0.189  11.186  24.240  0.00  0.00     0.020 A 
HETATM    7  N   UNL     1      -2.343  11.621  24.216  0.00  0.00    -0.277 N 
HETATM    8  H   UNL     1      -3.343  11.628  24.377  0.00  0.00     0.189 HD
HETATM    9  N   UNL     1      -1.852  12.449  23.287  0.00  0.00    -0.178 NA
HETATM   10  C   UNL     1      -0.525  12.226  23.318  0.00  0.00     0.071 A 
ENDROOT
BRANCH   1  11
HETATM   11  C   UNL     1       2.199   8.797  25.985  0.00  0.00     0.260 C 
HETATM   12  N   UNL     1       2.848   7.959  25.040  0.00  0.00    -0.318 N 
HETATM   13  C   UNL     1       2.443   7.913  23.635  0.00  0.00     0.159 C 
HETATM   14  O   UNL     1       2.613   8.982  27.136  0.00  0.00    -0.267 OA
BRANCH  12  15
HETATM   15  C   UNL     1       3.972   7.112  25.419  0.00  0.00     0.039 A 
HETATM   16  C   UNL     1       5.301   7.482  25.155  0.00  0.00     0.069 A 
HETATM   17  C   UNL     1       6.337   6.670  25.604  0.00  0.00     0.107 A 
HETATM   18  O   UNL     1       7.666   6.914  25.443  0.00  0.00    -0.323 OA
HETATM   19  C   UNL     1       6.104   5.513  26.305  0.00  0.00     0.105 A 
HETATM   20  C   UNL     1       8.238   5.760  26.090  0.00  0.00     0.352 A 
HETATM   21  O   UNL     1       7.251   4.881  26.668  0.00  0.00    -0.323 OA
HETATM   22  C   UNL     1       4.827   5.099  26.587  0.00  0.00     0.042 A 
HETATM   23  C   UNL     1       3.763   5.898  26.136  0.00  0.00     0.032 A 
ENDBRANCH  12  15
ENDBRANCH   1  11
BRANCH   3  24
HETATM   24  O   UNL     1      -0.499   8.176  27.099  0.00  0.00    -0.360 OA
HETATM   25  H   UNL     1       0.201   7.531  26.905  0.00  0.00     0.217 HD
ENDBRANCH   3  24
BRANCH  10  26
HETATM   26  C   UNL     1       0.365  13.011  22.412  0.00  0.00     0.100 C 
BRANCH  26  27
HETATM   27  C   UNL     1       1.649  13.287  23.167  0.00  0.00    -0.052 A 
HETATM   28  C   UNL     1       1.718  14.371  24.053  0.00  0.00     0.007 A 
HETATM   29  C   UNL     1       2.855  14.578  24.831  0.00  0.00     0.001 A 
HETATM   30  C   UNL     1       3.951  13.728  24.714  0.00  0.00     0.007 A 
HETATM   31  C   UNL     1       3.931  12.671  23.796  0.00  0.00    -0.061 A 
HETATM   32  C   UNL     1       2.772  12.447  23.038  0.00  0.00     0.014 A 
HETATM   33  C   UNL     1       5.151  11.817  23.593  0.00  0.00     0.048 C 
ENDBRANCH  26  27
ENDBRANCH  10  26
TORSDOF 5
ENDMDL
MODEL 5
REMARK VINA RESULT:    -9.385      4.816      7.116
REMARK INTER + INTRA:         -12.128
REMARK INTER:                 -11.033
REMARK INTRA:                  -1.095
REMARK UNBOUND:                -0.274
REMARK  5 active torsions:
REMARK  status: ('A' for Active; 'I' for Inactive)
REMARK    1  A    between atoms: C_7  and  N_10 
REMARK       I    between atoms: N_10  and  C_12 
REMARK    2  A    between atoms: C_12  and  C_14 
REMARK    3  A    between atoms: C_16  and  O_17 
REMARK    4  A    between atoms: C_24  and  C_25 
REMARK    5  A    between atoms: C_25  and  C_26 
ROOT
HETATM    1  C   UNL     1       1.116   7.685  25.661  0.00  0.00     0.066 A 
HETATM    2  C   UNL     1       0.138   8.542  25.088  0.00  0.00     0.035 A 
HETATM    3  C   UNL     1       1.312   7.744  27.042  0.00  0.00     0.083 A 
HETATM    4  C   UNL     1       0.656   8.679  27.858  0.00  0.00     0.069 A 
HETATM    5  C   UNL     1      -0.262   9.532  27.247  0.00  0.00     0.065 A 
HETATM    6  C   UNL     1      -0.537   9.498  25.883  0.00  0.00     0.020 A 
HETATM    7  N   UNL     1      -1.073  10.506  27.760  0.00  0.00    -0.277 N 
HETATM    8  H   UNL     1      -1.157  10.798  28.727  0.00  0.00     0.189 HD
HETATM    9  N   UNL     1      -1.851  11.111  26.854  0.00  0.00    -0.178 NA
HETATM   10  C   UNL     1      -1.505  10.534  25.689  0.00  0.00     0.071 A 
ENDROOT
BRANCH   1  11
HETATM   11  C   UNL     1       1.708   6.652  24.739  0.00  0.00     0.260 C 
HETATM   12  N   UNL     1       2.777   6.938  23.848  0.00  0.00    -0.318 N 
HETATM   13  C   UNL     1       3.532   8.190  23.915  0.00  0.00     0.159 C 
HETATM   14  O   UNL     1       1.158   5.547  24.817  0.00  0.00    -0.267 OA
BRANCH  12  15
HETATM   15  C   UNL     1       3.195   5.983  22.828  0.00  0.00     0.039 A 
HETATM   16  C   UNL     1       2.489   5.828  21.623  0.00  0.00     0.069 A 
HETATM   17  C   UNL     1       2.975   4.955  20.657  0.00  0.00     0.107 A 
HETATM   18  O   UNL     1       2.412   4.724  19.439  0.00  0.00    -0.323 OA
HETATM   19  C   UNL     1       4.131   4.237  20.837  0.00  0.00     0.105 A 
HETATM   20  C   UNL     1       3.327   3.752  18.893  0.00  0.00     0.352 A 
HETATM   21  O   UNL     1       4.439   3.462  19.765  0.00  0.00    -0.323 OA
HETATM   22  C   UNL     1       4.858   4.344  21.995  0.00  0.00     0.042 A 
HETATM   23  C   UNL     1       4.383   5.213  22.992  0.00  0.00     0.032 A 
ENDBRANCH  12  15
ENDBRANCH   1  11
BRANCH   3  24
HETATM   24  O   UNL     1       2.138   6.865  27.684  0.00  0.00    -0.360 OA
HETATM   25  H   UNL     1       1.586   6.399  28.334  0.00  0.00     0.217 HD
ENDBRANCH   3  24
BRANCH  10  26
HETATM   26  C   UNL     1      -2.164  10.988  24.429  0.00  0.00     0.100 C 
BRANCH  26  27
HETATM   27  C   UNL     1      -1.147  11.803  23.656  0.00  0.00    -0.052 A 
HETATM   28  C   UNL     1      -1.409  12.168  22.328  0.00  0.00     0.007 A 
HETATM   29  C   UNL     1      -0.532  13.001  21.637  0.00  0.00     0.001 A 
HETATM   30  C   UNL     1       0.634  13.455  22.247  0.00  0.00     0.007 A 
HETATM   31  C   UNL     1       0.950  13.059  23.552  0.00  0.00    -0.061 A 
HETATM   32  C   UNL     1       0.048  12.246  24.255  0.00  0.00     0.014 A 
HETATM   33  C   UNL     1       2.257  13.462  24.173  0.00  0.00     0.048 C 
ENDBRANCH  26  27
ENDBRANCH  10  26
TORSDOF 5
ENDMDL
MODEL 6
REMARK VINA RESULT:    -9.337      2.950      3.809
REMARK INTER + INTRA:         -12.067
REMARK INTER:                 -11.665
REMARK INTRA:                  -0.402
REMARK UNBOUND:                -0.274
REMARK  5 active torsions:
REMARK  status: ('A' for Active; 'I' for Inactive)
REMARK    1  A    between atoms: C_7  and  N_10 
REMARK       I    between atoms: N_10  and  C_12 
REMARK    2  A    between atoms: C_12  and  C_14 
REMARK    3  A    between atoms: C_16  and  O_17 
REMARK    4  A    between atoms: C_24  and  C_25 
REMARK    5  A    between atoms: C_25  and  C_26 
ROOT
HETATM    1  C   UNL     1       3.207   7.676  24.121  0.00  0.00     0.066 A 
HETATM    2  C   UNL     1       4.114   8.764  24.224  0.00  0.00     0.035 A 
HETATM    3  C   UNL     1       3.112   7.014  22.895  0.00  0.00     0.083 A 
HETATM    4  C   UNL     1       3.799   7.446  21.750  0.00  0.00     0.069 A 
HETATM    5  C   UNL     1       4.644   8.547  21.885  0.00  0.00     0.065 A 
HETATM    6  C   UNL     1       4.819   9.226  23.087  0.00  0.00     0.020 A 
HETATM    7  N   UNL     1       5.462   9.176  20.987  0.00  0.00    -0.277 N 
HETATM    8  H   UNL     1       5.609   8.943  20.013  0.00  0.00     0.189 HD
HETATM    9  N   UNL     1       6.153  10.203  21.496  0.00  0.00    -0.178 NA
HETATM   10  C   UNL     1       5.738  10.275  22.774  0.00  0.00     0.071 A 
ENDROOT
BRANCH   1  11
HETATM   11  C   UNL     1       2.578   7.217  25.411  0.00  0.00     0.260 C 
HETATM   12  N   UNL     1       1.793   8.070  26.231  0.00  0.00    -0.318 N 
HETATM   13  C   UNL     1       1.349   9.389  25.780  0.00  0.00     0.159 C 
HETATM   14  O   UNL     1       2.834   6.040  25.694  0.00  0.00    -0.267 OA
BRANCH  12  15
HETATM   15  C   UNL     1       1.368   7.664  27.566  0.00  0.00     0.039 A 
HETATM   16  C   UNL     1       2.287   7.236  28.538  0.00  0.00     0.069 A 
HETATM   17  C   UNL     1       1.832   6.931  29.816  0.00  0.00     0.107 A 
HETATM   18  O   UNL     1       2.607   6.529  30.860  0.00  0.00    -0.323 OA
HETATM   19  C   UNL     1       0.509   7.039  30.165  0.00  0.00     0.105 A 
HETATM   20  C   UNL     1       1.613   6.362  31.892  0.00  0.00     0.352 A 
HETATM   21  O   UNL     1       0.282   6.715  31.465  0.00  0.00    -0.323 OA
HETATM   22  C   UNL     1      -0.434   7.447  29.255  0.00  0.00     0.042 A 
HETATM   23  C   UNL     1      -0.001   7.752  27.954  0.00  0.00     0.032 A 
ENDBRANCH  12  15
ENDBRANCH   1  11
BRANCH   3  24
HETATM   24  O   UNL     1       2.362   5.881  22.752  0.00  0.00    -0.360 OA
HETATM   25  H   UNL     1       2.570   5.528  21.871  0.00  0.00     0.217 HD
ENDBRANCH   3  24
BRANCH  10  26
HETATM   26  C   UNL     1       6.289  11.346  23.658  0.00  0.00     0.100 C 
BRANCH  26  27
HETATM   27  C   UNL     1       5.200  12.383  23.843  0.00  0.00    -0.052 A 
HETATM   28  C   UNL     1       3.870  12.060  23.542  0.00  0.00     0.007 A 
HETATM   29  C   UNL     1       2.844  12.966  23.802  0.00  0.00     0.001 A 
HETATM   30  C   UNL     1       3.133  14.218  24.335  0.00  0.00     0.007 A 
HETATM   31  C   UNL     1       4.458  14.590  24.592  0.00  0.00    -0.061 A 
HETATM   32  C   UNL     1       5.484  13.662  24.358  0.00  0.00     0.014 A 
HETATM   33  C   UNL     1       4.780  15.978  25.068  0.00  0.00     0.048 C 
ENDBRANCH  26  27
ENDBRANCH  10  26
TORSDOF 5
ENDMDL
MODEL 7
REMARK VINA RESULT:    -9.324      4.262      5.344
REMARK INTER + INTRA:         -12.051
REMARK INTER:                 -10.920
REMARK INTRA:                  -1.131
REMARK UNBOUND:                -0.274
REMARK  5 active torsions:
REMARK  status: ('A' for Active; 'I' for Inactive)
REMARK    1  A    between atoms: C_7  and  N_10 
REMARK       I    between atoms: N_10  and  C_12 
REMARK    2  A    between atoms: C_12  and  C_14 
REMARK    3  A    between atoms: C_16  and  O_17 
REMARK    4  A    between atoms: C_24  and  C_25 
REMARK    5  A    between atoms: C_25  and  C_26 
ROOT
HETATM    1  C   UNL     1       1.556   8.636  25.357  0.00  0.00     0.066 A 
HETATM    2  C   UNL     1       1.481   9.742  24.470  0.00  0.00     0.035 A 
HETATM    3  C   UNL     1       0.431   8.334  26.127  0.00  0.00     0.083 A 
HETATM    4  C   UNL     1      -0.721   9.136  26.126  0.00  0.00     0.069 A 
HETATM    5  C   UNL     1      -0.735  10.240  25.274  0.00  0.00     0.065 A 
HETATM    6  C   UNL     1       0.335  10.573  24.448  0.00  0.00     0.020 A 
HETATM    7  N   UNL     1      -1.699  11.175  25.019  0.00  0.00    -0.277 N 
HETATM    8  H   UNL     1      -2.625  11.238  25.425  0.00  0.00     0.189 HD
HETATM    9  N   UNL     1      -1.354  12.089  24.104  0.00  0.00    -0.178 NA
HETATM   10  C   UNL     1      -0.092  11.759  23.773  0.00  0.00     0.071 A 
ENDROOT
BRANCH   1  11
HETATM   11  C   UNL     1       2.785   7.774  25.234  0.00  0.00     0.260 C 
HETATM   12  N   UNL     1       2.871   6.680  24.333  0.00  0.00    -0.318 N 
HETATM   13  C   UNL     1       1.863   6.443  23.299  0.00  0.00     0.159 C 
HETATM   14  O   UNL     1       3.694   8.097  26.009  0.00  0.00    -0.267 OA
BRANCH  12  15
HETATM   15  C   UNL     1       3.987   5.742  24.376  0.00  0.00     0.039 A 
HETATM   16  C   UNL     1       5.111   5.889  23.547  0.00  0.00     0.069 A 
HETATM   17  C   UNL     1       6.177   5.007  23.684  0.00  0.00     0.107 A 
HETATM   18  O   UNL     1       7.335   5.043  22.970  0.00  0.00    -0.323 OA
HETATM   19  C   UNL     1       6.172   3.994  24.610  0.00  0.00     0.105 A 
HETATM   20  C   UNL     1       8.039   3.915  23.528  0.00  0.00     0.352 A 
HETATM   21  O   UNL     1       7.318   3.263  24.594  0.00  0.00    -0.323 OA
HETATM   22  C   UNL     1       5.099   3.799  25.443  0.00  0.00     0.042 A 
HETATM   23  C   UNL     1       4.005   4.672  25.318  0.00  0.00     0.032 A 
ENDBRANCH  12  15
ENDBRANCH   1  11
BRANCH   3  24
HETATM   24  O   UNL     1       0.378   7.213  26.905  0.00  0.00    -0.360 OA
HETATM   25  H   UNL     1       0.801   6.505  26.391  0.00  0.00     0.217 HD
ENDBRANCH   3  24
BRANCH  10  26
HETATM   26  C   UNL     1       0.640  12.595  22.775  0.00  0.00     0.100 C 
BRANCH  26  27
HETATM   27  C   UNL     1       1.918  13.071  23.435  0.00  0.00    -0.052 A 
HETATM   28  C   UNL     1       1.890  14.181  24.292  0.00  0.00     0.007 A 
HETATM   29  C   UNL     1       3.034  14.569  24.985  0.00  0.00     0.001 A 
HETATM   30  C   UNL     1       4.229  13.878  24.810  0.00  0.00     0.007 A 
HETATM   31  C   UNL     1       4.301  12.802  23.917  0.00  0.00    -0.061 A 
HETATM   32  C   UNL     1       3.138  12.395  23.245  0.00  0.00     0.014 A 
HETATM   33  C   UNL     1       5.614  12.123  23.648  0.00  0.00     0.048 C 
ENDBRANCH  26  27
ENDBRANCH  10  26
TORSDOF 5
ENDMDL
MODEL 8
REMARK VINA RESULT:    -9.320      4.914      7.330
REMARK INTER + INTRA:         -12.046
REMARK INTER:                 -10.927
REMARK INTRA:                  -1.119
REMARK UNBOUND:                -0.274
REMARK  5 active torsions:
REMARK  status: ('A' for Active; 'I' for Inactive)
REMARK    1  A    between atoms: C_7  and  N_10 
REMARK       I    between atoms: N_10  and  C_12 
REMARK    2  A    between atoms: C_12  and  C_14 
REMARK    3  A    between atoms: C_16  and  O_17 
REMARK    4  A    between atoms: C_24  and  C_25 
REMARK    5  A    between atoms: C_25  and  C_26 
ROOT
HETATM    1  C   UNL     1       4.386  11.085  23.399  0.00  0.00     0.066 A 
HETATM    2  C   UNL     1       2.973  11.114  23.540  0.00  0.00     0.035 A 
HETATM    3  C   UNL     1       5.101  12.244  23.706  0.00  0.00     0.083 A 
HETATM    4  C   UNL     1       4.469  13.450  24.048  0.00  0.00     0.069 A 
HETATM    5  C   UNL     1       3.078  13.447  24.130  0.00  0.00     0.065 A 
HETATM    6  C   UNL     1       2.307  12.315  23.880  0.00  0.00     0.020 A 
HETATM    7  N   UNL     1       2.187  14.428  24.468  0.00  0.00    -0.277 N 
HETATM    8  H   UNL     1       2.390  15.385  24.733  0.00  0.00     0.189 HD
HETATM    9  N   UNL     1       0.907  14.040  24.459  0.00  0.00    -0.178 NA
HETATM   10  C   UNL     1       0.958  12.756  24.059  0.00  0.00     0.071 A 
ENDROOT
BRANCH   1  11
HETATM   11  C   UNL     1       4.993   9.735  23.118  0.00  0.00     0.260 C 
HETATM   12  N   UNL     1       4.899   8.644  24.024  0.00  0.00    -0.318 N 
HETATM   13  C   UNL     1       4.017   8.678  25.191  0.00  0.00     0.159 C 
HETATM   14  O   UNL     1       5.599   9.681  22.041  0.00  0.00    -0.267 OA
BRANCH  12  15
HETATM   15  C   UNL     1       5.663   7.419  23.823  0.00  0.00     0.039 A 
HETATM   16  C   UNL     1       5.113   6.300  23.175  0.00  0.00     0.069 A 
HETATM   17  C   UNL     1       5.911   5.185  22.947  0.00  0.00     0.107 A 
HETATM   18  O   UNL     1       5.522   4.046  22.313  0.00  0.00    -0.323 OA
HETATM   19  C   UNL     1       7.229   5.140  23.330  0.00  0.00     0.105 A 
HETATM   20  C   UNL     1       6.735   3.267  22.376  0.00  0.00     0.352 A 
HETATM   21  O   UNL     1       7.833   3.971  22.993  0.00  0.00    -0.323 OA
HETATM   22  C   UNL     1       7.817   6.201  23.971  0.00  0.00     0.042 A 
HETATM   23  C   UNL     1       7.029   7.337  24.221  0.00  0.00     0.032 A 
ENDBRANCH  12  15
ENDBRANCH   1  11
BRANCH   3  24
HETATM   24  O   UNL     1       6.466  12.258  23.721  0.00  0.00    -0.360 OA
HETATM   25  H   UNL     1       6.731  12.012  24.622  0.00  0.00     0.217 HD
ENDBRANCH   3  24
BRANCH  10  26
HETATM   26  C   UNL     1      -0.316  11.991  23.904  0.00  0.00     0.100 C 
BRANCH  26  27
HETATM   27  C   UNL     1      -0.318  10.902  24.957  0.00  0.00    -0.052 A 
HETATM   28  C   UNL     1      -0.659  11.210  26.281  0.00  0.00     0.007 A 
HETATM   29  C   UNL     1      -0.765  10.204  27.238  0.00  0.00     0.001 A 
HETATM   30  C   UNL     1      -0.502   8.880  26.897  0.00  0.00     0.007 A 
HETATM   31  C   UNL     1      -0.104   8.550  25.596  0.00  0.00    -0.061 A 
HETATM   32  C   UNL     1      -0.030   9.563  24.628  0.00  0.00     0.014 A 
HETATM   33  C   UNL     1       0.282   7.139  25.255  0.00  0.00     0.048 C 
ENDBRANCH  26  27
ENDBRANCH  10  26
TORSDOF 5
ENDMDL
MODEL 9
REMARK VINA RESULT:    -9.226      1.695      2.349
REMARK INTER + INTRA:         -11.928
REMARK INTER:                 -11.654
REMARK INTRA:                  -0.274
REMARK UNBOUND:                -0.274
REMARK  5 active torsions:
REMARK  status: ('A' for Active; 'I' for Inactive)
REMARK    1  A    between atoms: C_7  and  N_10 
REMARK       I    between atoms: N_10  and  C_12 
REMARK    2  A    between atoms: C_12  and  C_14 
REMARK    3  A    between atoms: C_16  and  O_17 
REMARK    4  A    between atoms: C_24  and  C_25 
REMARK    5  A    between atoms: C_25  and  C_26 
ROOT
HETATM    1  C   UNL     1       1.307   9.979  25.713  0.00  0.00     0.066 A 
HETATM    2  C   UNL     1       1.938  11.249  25.790  0.00  0.00     0.035 A 
HETATM    3  C   UNL     1       0.482   9.720  24.617  0.00  0.00     0.083 A 
HETATM    4  C   UNL     1       0.181  10.696  23.654  0.00  0.00     0.069 A 
HETATM    5  C   UNL     1       0.786  11.944  23.792  0.00  0.00     0.065 A 
HETATM    6  C   UNL     1       1.652  12.255  24.837  0.00  0.00     0.020 A 
HETATM    7  N   UNL     1       0.728  13.070  23.018  0.00  0.00    -0.277 N 
HETATM    8  H   UNL     1       0.207  13.206  22.160  0.00  0.00     0.189 HD
HETATM    9  N   UNL     1       1.476  14.086  23.464  0.00  0.00    -0.178 NA
HETATM   10  C   UNL     1       2.017  13.618  24.603  0.00  0.00     0.071 A 
ENDROOT
BRANCH   1  11
HETATM   11  C   UNL     1       1.751   8.960  26.731  0.00  0.00     0.260 C 
HETATM   12  N   UNL     1       0.925   8.535  27.805  0.00  0.00    -0.318 N 
HETATM   13  C   UNL     1      -0.495   8.883  27.880  0.00  0.00     0.159 C 
HETATM   14  O   UNL     1       2.906   8.554  26.552  0.00  0.00    -0.267 OA
BRANCH  12  15
HETATM   15  C   UNL     1       1.447   7.707  28.886  0.00  0.00     0.039 A 
HETATM   16  C   UNL     1       2.561   6.870  28.707  0.00  0.00     0.069 A 
HETATM   17  C   UNL     1       3.059   6.158  29.792  0.00  0.00     0.107 A 
HETATM   18  O   UNL     1       4.141   5.333  29.772  0.00  0.00    -0.323 OA
HETATM   19  C   UNL     1       2.499   6.248  31.042  0.00  0.00     0.105 A 
HETATM   20  C   UNL     1       4.172   4.887  31.143  0.00  0.00     0.352 A 
HETATM   21  O   UNL     1       3.150   5.490  31.963  0.00  0.00    -0.323 OA
HETATM   22  C   UNL     1       1.407   7.044  31.275  0.00  0.00     0.042 A 
HETATM   23  C   UNL     1       0.879   7.767  30.192  0.00  0.00     0.032 A 
ENDBRANCH  12  15
ENDBRANCH   1  11
BRANCH   3  24
HETATM   24  O   UNL     1      -0.055   8.483  24.404  0.00  0.00    -0.360 OA
HETATM   25  H   UNL     1      -0.858   8.438  24.950  0.00  0.00     0.217 HD
ENDBRANCH   3  24
BRANCH  10  26
HETATM   26  C   UNL     1       2.909  14.509  25.404  0.00  0.00     0.100 C 
BRANCH  26  27
HETATM   27  C   UNL     1       4.313  14.351  24.859  0.00  0.00    -0.052 A 
HETATM   28  C   UNL     1       5.257  15.370  25.052  0.00  0.00     0.007 A 
HETATM   29  C   UNL     1       6.578  15.199  24.647  0.00  0.00     0.001 A 
HETATM   30  C   UNL     1       6.971  14.023  24.014  0.00  0.00     0.007 A 
HETATM   31  C   UNL     1       6.038  13.011  23.756  0.00  0.00    -0.061 A 
HETATM   32  C   UNL     1       4.716  13.176  24.195  0.00  0.00     0.014 A 
HETATM   33  C   UNL     1       6.437  11.789  22.981  0.00  0.00     0.048 C 
ENDBRANCH  26  27
ENDBRANCH  10  26
TORSDOF 5
ENDMDL
