MODEL 1
REMARK VINA RESULT:    -8.669      0.000      0.000
REMARK INTER + INTRA:         -11.687
REMARK INTER:                 -11.280
REMARK INTRA:                  -0.407
REMARK UNBOUND:                -0.738
REMARK  5 active torsions:
REMARK  status: ('A' for Active; 'I' for Inactive)
REMARK    1  A    between atoms: N_6  and  C_7 
REMARK    2  A    between atoms: C_12  and  N_13 
REMARK       I    between atoms: N_13  and  C_15 
REMARK    3  A    between atoms: C_15  and  C_17 
REMARK    4  A    between atoms: C_18  and  O_20 
REMARK    5  A    between atoms: C_24  and  C_28 
REMARK       I    between atoms: C_28  and  N_30 
ROOT
HETATM    1  C   UNL     1       5.595  11.853  20.999  0.00  0.00     0.066 C 
HETATM    2  C   UNL     1       4.517  12.402  21.720  0.00  0.00     0.083 C 
HETATM    3  C   UNL     1       4.627  13.588  22.456  0.00  0.00     0.069 C 
HETATM    4  C   UNL     1       6.811  12.578  20.988  0.00  0.00     0.036 C 
HETATM    5  C   UNL     1       6.994  13.691  21.847  0.00  0.00     0.029 C 
HETATM    6  C   UNL     1       5.886  14.186  22.519  0.00  0.00     0.065 C 
HETATM    7  C   UNL     1       8.100  14.487  22.316  0.00  0.00     0.157 C 
HETATM    8  N   UNL     1       7.648  15.509  23.076  0.00  0.00    -0.168 NA
HETATM    9  N   UNL     1       6.329  15.300  23.170  0.00  0.00    -0.277 N 
HETATM   10  H   UNL     1       5.780  15.951  23.724  0.00  0.00     0.189 HD
ENDROOT
BRANCH   1  11
HETATM   11  C   UNL     1       5.406  10.515  20.296  0.00  0.00     0.260 C 
HETATM   12  N   UNL     1       4.749  10.409  19.037  0.00  0.00    -0.318 N 
HETATM   13  C   UNL     1       4.249  11.612  18.365  0.00  0.00     0.159 C 
HETATM   14  O   UNL     1       5.942   9.563  20.890  0.00  0.00    -0.267 OA
BRANCH  12  15
HETATM   15  C   UNL     1       4.619   9.159  18.287  0.00  0.00     0.037 A 
HETATM   16  C   UNL     1       4.039   8.025  18.882  0.00  0.00     0.032 A 
HETATM   17  C   UNL     1       3.733   6.856  18.162  0.00  0.00     0.031 A 
HETATM   18  C   UNL     1       4.030   6.710  16.808  0.00  0.00     0.030 A 
HETATM   19  C   UNL     1       4.708   7.792  16.234  0.00  0.00     0.031 A 
HETATM   20  C   UNL     1       4.995   8.986  16.950  0.00  0.00     0.032 A 
BRANCH  18  21
HETATM   21  N   UNL     1       3.680   5.566  16.123  0.00  0.00    -0.377 N 
HETATM   22  C   UNL     1       3.241   5.544  14.719  0.00  0.00     0.149 C 
HETATM   23  C   UNL     1       1.808   5.000  14.619  0.00  0.00     0.187 C 
HETATM   24  O   UNL     1       1.690   3.703  15.231  0.00  0.00    -0.388 OA
HETATM   25  C   UNL     1       2.054   3.776  16.619  0.00  0.00     0.187 C 
HETATM   26  C   UNL     1       3.500   4.269  16.806  0.00  0.00     0.149 C 
ENDBRANCH  18  21
ENDBRANCH  12  15
ENDBRANCH   1  11
BRANCH   2  27
HETATM   27  O   UNL     1       3.272  11.819  21.763  0.00  0.00    -0.360 OA
HETATM   28  H   UNL     1       3.373  10.878  21.486  0.00  0.00     0.217 HD
ENDBRANCH   2  27
BRANCH   7  29
HETATM   29  C   UNL     1       9.547  14.264  22.052  0.00  0.00     0.275 C 
HETATM   30  O   UNL     1       9.906  13.817  20.960  0.00  0.00    -0.266 OA
HETATM   31  N   UNL     1      10.497  14.548  23.070  0.00  0.00    -0.347 N 
HETATM   32  C   UNL     1      11.910  14.372  22.728  0.00  0.00     0.126 C 
HETATM   33  C   UNL     1      10.188  14.363  24.494  0.00  0.00     0.126 C 
HETATM   34  C   UNL     1      12.843  15.190  23.627  0.00  0.00     0.020 C 
HETATM   35  C   UNL     1      12.555  14.950  25.106  0.00  0.00     0.003 C 
HETATM   36  C   UNL     1      11.083  15.213  25.395  0.00  0.00     0.020 C 
ENDBRANCH   7  29
TORSDOF 5
ENDMDL
MODEL 2
REMARK VINA RESULT:    -8.658      2.232      3.011
REMARK INTER + INTRA:         -11.674
REMARK INTER:                 -10.708
REMARK INTRA:                  -0.966
REMARK UNBOUND:                -0.738
REMARK  5 active torsions:
REMARK  status: ('A' for Active; 'I' for Inactive)
REMARK    1  A    between atoms: N_6  and  C_7 
REMARK    2  A    between atoms: C_12  and  N_13 
REMARK       I    between atoms: N_13  and  C_15 
REMARK    3  A    between atoms: C_15  and  C_17 
REMARK    4  A    between atoms: C_18  and  O_20 
REMARK    5  A    between atoms: C_24  and  C_28 
REMARK       I    between atoms: C_28  and  N_30 
ROOT
HETATM    1  C   UNL     1       7.264  12.272  23.648  0.00  0.00     0.066 C 
HETATM    2  C   UNL     1       6.448  12.304  24.795  0.00  0.00     0.083 C 
HETATM    3  C   UNL     1       6.658  13.205  25.846  0.00  0.00     0.069 C 
HETATM    4  C   UNL     1       8.297  13.236  23.553  0.00  0.00     0.036 C 
HETATM    5  C   UNL     1       8.628  14.050  24.666  0.00  0.00     0.029 C 
HETATM    6  C   UNL     1       7.772  14.039  25.759  0.00  0.00     0.065 C 
HETATM    7  C   UNL     1       9.717  14.909  25.055  0.00  0.00     0.157 C 
HETATM    8  N   UNL     1       9.435  15.515  26.229  0.00  0.00    -0.168 NA
HETATM    9  N   UNL     1       8.270  14.979  26.614  0.00  0.00    -0.277 N 
HETATM   10  H   UNL     1       7.873  15.282  27.498  0.00  0.00     0.189 HD
ENDROOT
BRANCH   1  11
HETATM   11  C   UNL     1       7.013  11.202  22.593  0.00  0.00     0.260 C 
HETATM   12  N   UNL     1       5.981  11.330  21.619  0.00  0.00    -0.318 N 
HETATM   13  C   UNL     1       5.137  12.529  21.595  0.00  0.00     0.159 C 
HETATM   14  O   UNL     1       7.833  10.268  22.629  0.00  0.00    -0.267 OA
BRANCH  12  15
HETATM   15  C   UNL     1       5.757  10.369  20.538  0.00  0.00     0.037 A 
HETATM   16  C   UNL     1       5.072   9.166  20.781  0.00  0.00     0.032 A 
HETATM   17  C   UNL     1       4.679   8.290  19.753  0.00  0.00     0.031 A 
HETATM   18  C   UNL     1       4.984   8.520  18.413  0.00  0.00     0.030 A 
HETATM   19  C   UNL     1       5.763   9.659  18.174  0.00  0.00     0.031 A 
HETATM   20  C   UNL     1       6.139  10.562  19.205  0.00  0.00     0.032 A 
BRANCH  18  21
HETATM   21  N   UNL     1       4.549   7.661  17.427  0.00  0.00    -0.377 N 
HETATM   22  C   UNL     1       3.755   8.076  16.259  0.00  0.00     0.149 C 
HETATM   23  C   UNL     1       2.391   7.371  16.267  0.00  0.00     0.187 C 
HETATM   24  O   UNL     1       2.534   5.940  16.329  0.00  0.00    -0.388 OA
HETATM   25  C   UNL     1       3.247   5.565  17.519  0.00  0.00     0.187 C 
HETATM   26  C   UNL     1       4.651   6.194  17.566  0.00  0.00     0.149 C 
ENDBRANCH  18  21
ENDBRANCH  12  15
ENDBRANCH   1  11
BRANCH   2  27
HETATM   27  O   UNL     1       5.381  11.454  24.977  0.00  0.00    -0.360 OA
HETATM   28  H   UNL     1       5.293  10.907  24.162  0.00  0.00     0.217 HD
ENDBRANCH   2  27
BRANCH   7  29
HETATM   29  C   UNL     1      10.995  15.129  24.327  0.00  0.00     0.275 C 
HETATM   30  O   UNL     1      10.984  15.701  23.234  0.00  0.00    -0.266 OA
HETATM   31  N   UNL     1      12.213  14.657  24.888  0.00  0.00    -0.347 N 
HETATM   32  C   UNL     1      13.445  14.962  24.157  0.00  0.00     0.126 C 
HETATM   33  C   UNL     1      12.271  13.430  25.695  0.00  0.00     0.126 C 
HETATM   34  C   UNL     1      14.688  14.923  25.051  0.00  0.00     0.020 C 
HETATM   35  C   UNL     1      14.774  13.623  25.843  0.00  0.00     0.003 C 
HETATM   36  C   UNL     1      13.484  13.407  26.624  0.00  0.00     0.020 C 
ENDBRANCH   7  29
TORSDOF 5
ENDMDL
MODEL 3
REMARK VINA RESULT:    -8.638      1.207      1.420
REMARK INTER + INTRA:         -11.649
REMARK INTER:                 -10.625
REMARK INTRA:                  -1.024
REMARK UNBOUND:                -0.738
REMARK  5 active torsions:
REMARK  status: ('A' for Active; 'I' for Inactive)
REMARK    1  A    between atoms: N_6  and  C_7 
REMARK    2  A    between atoms: C_12  and  N_13 
REMARK       I    between atoms: N_13  and  C_15 
REMARK    3  A    between atoms: C_15  and  C_17 
REMARK    4  A    between atoms: C_18  and  O_20 
REMARK    5  A    between atoms: C_24  and  C_28 
REMARK       I    between atoms: C_28  and  N_30 
ROOT
HETATM    1  C   UNL     1       5.143  12.409  21.282  0.00  0.00     0.066 C 
HETATM    2  C   UNL     1       4.105  12.729  22.178  0.00  0.00     0.083 C 
HETATM    3  C   UNL     1       4.264  13.656  23.216  0.00  0.00     0.069 C 
HETATM    4  C   UNL     1       6.367  13.107  21.422  0.00  0.00     0.036 C 
HETATM    5  C   UNL     1       6.603  13.928  22.553  0.00  0.00     0.029 C 
HETATM    6  C   UNL     1       5.532  14.211  23.389  0.00  0.00     0.065 C 
HETATM    7  C   UNL     1       7.739  14.557  23.179  0.00  0.00     0.157 C 
HETATM    8  N   UNL     1       7.334  15.319  24.218  0.00  0.00    -0.168 NA
HETATM    9  N   UNL     1       6.018  15.093  24.310  0.00  0.00    -0.277 N 
HETATM   10  H   UNL     1       5.503  15.558  25.051  0.00  0.00     0.189 HD
ENDROOT
BRANCH   1  11
HETATM   11  C   UNL     1       4.906  11.327  20.236  0.00  0.00     0.260 C 
HETATM   12  N   UNL     1       5.528  10.047  20.321  0.00  0.00    -0.318 N 
HETATM   13  C   UNL     1       6.407   9.730  21.450  0.00  0.00     0.159 C 
HETATM   14  O   UNL     1       4.076  11.648  19.369  0.00  0.00    -0.267 OA
BRANCH  12  15
HETATM   15  C   UNL     1       5.266   8.950  19.388  0.00  0.00     0.037 A 
HETATM   16  C   UNL     1       4.403   7.899  19.745  0.00  0.00     0.032 A 
HETATM   17  C   UNL     1       3.982   6.914  18.833  0.00  0.00     0.031 A 
HETATM   18  C   UNL     1       4.429   6.873  17.514  0.00  0.00     0.030 A 
HETATM   19  C   UNL     1       5.375   7.850  17.182  0.00  0.00     0.031 A 
HETATM   20  C   UNL     1       5.783   8.863  18.090  0.00  0.00     0.032 A 
BRANCH  18  21
HETATM   21  N   UNL     1       3.965   5.916  16.636  0.00  0.00    -0.377 N 
HETATM   22  C   UNL     1       3.511   6.202  15.266  0.00  0.00     0.149 C 
HETATM   23  C   UNL     1       2.032   5.820  15.106  0.00  0.00     0.187 C 
HETATM   24  O   UNL     1       1.797   4.447  15.466  0.00  0.00    -0.388 OA
HETATM   25  C   UNL     1       2.180   4.221  16.832  0.00  0.00     0.187 C 
HETATM   26  C   UNL     1       3.668   4.535  17.068  0.00  0.00     0.149 C 
ENDBRANCH  18  21
ENDBRANCH  12  15
ENDBRANCH   1  11
BRANCH   2  27
HETATM   27  O   UNL     1       2.856  12.158  22.111  0.00  0.00    -0.360 OA
HETATM   28  H   UNL     1       2.198  12.849  22.360  0.00  0.00     0.217 HD
ENDBRANCH   2  27
BRANCH   7  29
HETATM   29  C   UNL     1       9.169  14.419  22.795  0.00  0.00     0.275 C 
HETATM   30  O   UNL     1       9.523  14.699  21.648  0.00  0.00    -0.266 OA
HETATM   31  N   UNL     1      10.108  13.943  23.751  0.00  0.00    -0.347 N 
HETATM   32  C   UNL     1      11.511  13.891  23.335  0.00  0.00     0.126 C 
HETATM   33  C   UNL     1       9.740  12.957  24.776  0.00  0.00     0.126 C 
HETATM   34  C   UNL     1      12.480  13.911  24.521  0.00  0.00     0.020 C 
HETATM   35  C   UNL     1      12.128  12.846  25.556  0.00  0.00     0.003 C 
HETATM   36  C   UNL     1      10.675  13.003  25.984  0.00  0.00     0.020 C 
ENDBRANCH   7  29
TORSDOF 5
ENDMDL
MODEL 4
REMARK VINA RESULT:    -8.474      2.214      4.770
REMARK INTER + INTRA:         -11.442
REMARK INTER:                 -10.744
REMARK INTRA:                  -0.697
REMARK UNBOUND:                -0.738
REMARK  5 active torsions:
REMARK  status: ('A' for Active; 'I' for Inactive)
REMARK    1  A    between atoms: N_6  and  C_7 
REMARK    2  A    between atoms: C_12  and  N_13 
REMARK       I    between atoms: N_13  and  C_15 
REMARK    3  A    between atoms: C_15  and  C_17 
REMARK    4  A    between atoms: C_18  and  O_20 
REMARK    5  A    between atoms: C_24  and  C_28 
REMARK       I    between atoms: C_28  and  N_30 
ROOT
HETATM    1  C   UNL     1       6.926  12.024  21.035  0.00  0.00     0.066 C 
HETATM    2  C   UNL     1       8.291  12.250  21.295  0.00  0.00     0.083 C 
HETATM    3  C   UNL     1       8.736  13.184  22.238  0.00  0.00     0.069 C 
HETATM    4  C   UNL     1       5.985  12.742  21.812  0.00  0.00     0.036 C 
HETATM    5  C   UNL     1       6.405  13.801  22.656  0.00  0.00     0.029 C 
HETATM    6  C   UNL     1       7.767  13.959  22.876  0.00  0.00     0.065 C 
HETATM    7  C   UNL     1       5.786  14.894  23.363  0.00  0.00     0.157 C 
HETATM    8  N   UNL     1       6.705  15.548  24.105  0.00  0.00    -0.168 NA
HETATM    9  N   UNL     1       7.868  14.962  23.795  0.00  0.00    -0.277 N 
HETATM   10  H   UNL     1       8.714  15.316  24.232  0.00  0.00     0.189 HD
ENDROOT
BRANCH   1  11
HETATM   11  C   UNL     1       6.536  11.050  19.931  0.00  0.00     0.260 C 
HETATM   12  N   UNL     1       5.706   9.919  20.181  0.00  0.00    -0.318 N 
HETATM   13  C   UNL     1       5.179   9.677  21.527  0.00  0.00     0.159 C 
HETATM   14  O   UNL     1       6.948  11.383  18.807  0.00  0.00    -0.267 OA
BRANCH  12  15
HETATM   15  C   UNL     1       5.238   9.004  19.138  0.00  0.00     0.037 A 
HETATM   16  C   UNL     1       5.675   7.668  19.111  0.00  0.00     0.032 A 
HETATM   17  C   UNL     1       5.131   6.705  18.242  0.00  0.00     0.031 A 
HETATM   18  C   UNL     1       4.150   7.012  17.301  0.00  0.00     0.030 A 
HETATM   19  C   UNL     1       3.790   8.364  17.246  0.00  0.00     0.031 A 
HETATM   20  C   UNL     1       4.316   9.336  18.139  0.00  0.00     0.032 A 
BRANCH  18  21
HETATM   21  N   UNL     1       3.610   6.035  16.492  0.00  0.00    -0.377 N 
HETATM   22  C   UNL     1       3.159   6.261  15.110  0.00  0.00     0.149 C 
HETATM   23  C   UNL     1       1.656   5.973  14.988  0.00  0.00     0.187 C 
HETATM   24  O   UNL     1       1.332   4.646  15.439  0.00  0.00    -0.388 OA
HETATM   25  C   UNL     1       1.717   4.483  16.815  0.00  0.00     0.187 C 
HETATM   26  C   UNL     1       3.226   4.708  17.016  0.00  0.00     0.149 C 
ENDBRANCH  18  21
ENDBRANCH  12  15
ENDBRANCH   1  11
BRANCH   2  27
HETATM   27  O   UNL     1       9.298  11.576  20.643  0.00  0.00    -0.360 OA
HETATM   28  H   UNL     1      10.147  11.801  21.091  0.00  0.00     0.217 HD
ENDBRANCH   2  27
BRANCH   7  29
HETATM   29  C   UNL     1       4.356  15.302  23.314  0.00  0.00     0.275 C 
HETATM   30  O   UNL     1       4.065  16.501  23.296  0.00  0.00    -0.266 OA
HETATM   31  N   UNL     1       3.342  14.307  23.313  0.00  0.00    -0.347 N 
HETATM   32  C   UNL     1       1.957  14.768  23.197  0.00  0.00     0.126 C 
HETATM   33  C   UNL     1       3.502  13.035  24.031  0.00  0.00     0.126 C 
HETATM   34  C   UNL     1       1.016  13.686  22.660  0.00  0.00     0.020 C 
HETATM   35  C   UNL     1       1.145  12.385  23.446  0.00  0.00     0.003 C 
HETATM   36  C   UNL     1       2.600  11.937  23.470  0.00  0.00     0.020 C 
ENDBRANCH   7  29
TORSDOF 5
ENDMDL
MODEL 5
REMARK VINA RESULT:    -8.419      5.920     11.093
REMARK INTER + INTRA:         -11.372
REMARK INTER:                 -10.873
REMARK INTRA:                  -0.499
REMARK UNBOUND:                -0.738
REMARK  5 active torsions:
REMARK  status: ('A' for Active; 'I' for Inactive)
REMARK    1  A    between atoms: N_6  and  C_7 
REMARK    2  A    between atoms: C_12  and  N_13 
REMARK       I    between atoms: N_13  and  C_15 
REMARK    3  A    between atoms: C_15  and  C_17 
REMARK    4  A    between atoms: C_18  and  O_20 
REMARK    5  A    between atoms: C_24  and  C_28 
REMARK       I    between atoms: C_28  and  N_30 
ROOT
HETATM    1  C   UNL     1       0.450  12.857  22.984  0.00  0.00     0.066 C 
HETATM    2  C   UNL     1      -0.408  13.172  21.913  0.00  0.00     0.083 C 
HETATM    3  C   UNL     1      -1.787  12.931  21.954  0.00  0.00     0.069 C 
HETATM    4  C   UNL     1      -0.136  12.329  24.159  0.00  0.00     0.036 C 
HETATM    5  C   UNL     1      -1.497  11.931  24.169  0.00  0.00     0.029 C 
HETATM    6  C   UNL     1      -2.288  12.284  23.084  0.00  0.00     0.065 C 
HETATM    7  C   UNL     1      -2.358  11.146  25.016  0.00  0.00     0.157 C 
HETATM    8  N   UNL     1      -3.627  11.187  24.556  0.00  0.00    -0.168 NA
HETATM    9  N   UNL     1      -3.548  11.876  23.411  0.00  0.00    -0.277 N 
HETATM   10  H   UNL     1      -4.400  12.013  22.876  0.00  0.00     0.189 HD
ENDROOT
BRANCH   1  11
HETATM   11  C   UNL     1       1.948  13.076  22.816  0.00  0.00     0.260 C 
HETATM   12  N   UNL     1       2.690  13.922  23.691  0.00  0.00    -0.318 N 
HETATM   13  C   UNL     1       2.018  14.595  24.808  0.00  0.00     0.159 C 
HETATM   14  O   UNL     1       2.451  12.396  21.906  0.00  0.00    -0.267 OA
BRANCH  12  15
HETATM   15  C   UNL     1       4.141  14.097  23.621  0.00  0.00     0.037 A 
HETATM   16  C   UNL     1       4.696  15.347  23.295  0.00  0.00     0.032 A 
HETATM   17  C   UNL     1       6.074  15.616  23.379  0.00  0.00     0.031 A 
HETATM   18  C   UNL     1       7.007  14.648  23.744  0.00  0.00     0.030 A 
HETATM   19  C   UNL     1       6.475  13.371  23.962  0.00  0.00     0.031 A 
HETATM   20  C   UNL     1       5.081  13.100  23.904  0.00  0.00     0.032 A 
BRANCH  18  21
HETATM   21  N   UNL     1       8.346  14.956  23.856  0.00  0.00    -0.377 N 
HETATM   22  C   UNL     1       9.208  15.318  22.719  0.00  0.00     0.149 C 
HETATM   23  C   UNL     1      10.346  14.298  22.570  0.00  0.00     0.187 C 
HETATM   24  O   UNL     1      11.102  14.165  23.787  0.00  0.00    -0.388 OA
HETATM   25  C   UNL     1      10.245  13.737  24.858  0.00  0.00     0.187 C 
HETATM   26  C   UNL     1       9.099  14.735  25.107  0.00  0.00     0.149 C 
ENDBRANCH  18  21
ENDBRANCH  12  15
ENDBRANCH   1  11
BRANCH   2  27
HETATM   27  O   UNL     1       0.036  13.738  20.740  0.00  0.00    -0.360 OA
HETATM   28  H   UNL     1       0.697  13.123  20.343  0.00  0.00     0.217 HD
ENDBRANCH   2  27
BRANCH   7  29
HETATM   29  C   UNL     1      -1.969  10.370  26.224  0.00  0.00     0.275 C 
HETATM   30  O   UNL     1      -2.369  10.728  27.335  0.00  0.00    -0.266 OA
HETATM   31  N   UNL     1      -1.120   9.238  26.087  0.00  0.00    -0.347 N 
HETATM   32  C   UNL     1      -0.826   8.476  27.303  0.00  0.00     0.126 C 
HETATM   33  C   UNL     1      -0.072   9.174  25.060  0.00  0.00     0.126 C 
HETATM   34  C   UNL     1      -0.400   7.035  27.009  0.00  0.00     0.020 C 
HETATM   35  C   UNL     1       0.728   6.977  25.984  0.00  0.00     0.003 C 
HETATM   36  C   UNL     1       0.324   7.736  24.727  0.00  0.00     0.020 C 
ENDBRANCH   7  29
TORSDOF 5
ENDMDL
MODEL 6
REMARK VINA RESULT:    -8.302      5.488      7.385
REMARK INTER + INTRA:         -11.224
REMARK INTER:                 -10.157
REMARK INTRA:                  -1.067
REMARK UNBOUND:                -0.738
REMARK  5 active torsions:
REMARK  status: ('A' for Active; 'I' for Inactive)
REMARK    1  A    between atoms: N_6  and  C_7 
REMARK    2  A    between atoms: C_12  and  N_13 
REMARK       I    between atoms: N_13  and  C_15 
REMARK    3  A    between atoms: C_15  and  C_17 
REMARK    4  A    between atoms: C_18  and  O_20 
REMARK    5  A    between atoms: C_24  and  C_28 
REMARK       I    between atoms: C_28  and  N_30 
ROOT
HETATM    1  C   UNL     1       5.980  10.846  22.629  0.00  0.00     0.066 C 
HETATM    2  C   UNL     1       5.532  11.209  21.344  0.00  0.00     0.083 C 
HETATM    3  C   UNL     1       6.398  11.668  20.344  0.00  0.00     0.069 C 
HETATM    4  C   UNL     1       7.372  10.904  22.876  0.00  0.00     0.036 C 
HETATM    5  C   UNL     1       8.247  11.510  21.939  0.00  0.00     0.029 C 
HETATM    6  C   UNL     1       7.740  11.832  20.688  0.00  0.00     0.065 C 
HETATM    7  C   UNL     1       9.605  11.990  21.924  0.00  0.00     0.157 C 
HETATM    8  N   UNL     1       9.939  12.402  20.682  0.00  0.00    -0.168 NA
HETATM    9  N   UNL     1       8.809  12.289  19.974  0.00  0.00    -0.277 N 
HETATM   10  H   UNL     1       8.826  12.569  18.998  0.00  0.00     0.189 HD
ENDROOT
BRANCH   1  11
HETATM   11  C   UNL     1       4.955  10.440  23.680  0.00  0.00     0.260 C 
HETATM   12  N   UNL     1       4.493   9.097  23.804  0.00  0.00    -0.318 N 
HETATM   13  C   UNL     1       5.023   8.053  22.922  0.00  0.00     0.159 C 
HETATM   14  O   UNL     1       4.633  11.366  24.444  0.00  0.00    -0.267 OA
BRANCH  12  15
HETATM   15  C   UNL     1       3.575   8.644  24.850  0.00  0.00     0.037 A 
HETATM   16  C   UNL     1       4.065   8.020  26.010  0.00  0.00     0.032 A 
HETATM   17  C   UNL     1       3.251   7.720  27.118  0.00  0.00     0.031 A 
HETATM   18  C   UNL     1       1.881   7.972  27.132  0.00  0.00     0.030 A 
HETATM   19  C   UNL     1       1.365   8.490  25.937  0.00  0.00     0.031 A 
HETATM   20  C   UNL     1       2.187   8.820  24.826  0.00  0.00     0.032 A 
BRANCH  18  21
HETATM   21  N   UNL     1       1.120   7.702  28.249  0.00  0.00    -0.377 N 
HETATM   22  C   UNL     1       1.675   7.483  29.595  0.00  0.00     0.149 C 
HETATM   23  C   UNL     1       1.333   6.070  30.087  0.00  0.00     0.187 C 
HETATM   24  O   UNL     1      -0.085   5.824  30.053  0.00  0.00    -0.388 OA
HETATM   25  C   UNL     1      -0.580   5.972  28.711  0.00  0.00     0.187 C 
HETATM   26  C   UNL     1      -0.320   7.384  28.158  0.00  0.00     0.149 C 
ENDBRANCH  18  21
ENDBRANCH  12  15
ENDBRANCH   1  11
BRANCH   2  27
HETATM   27  O   UNL     1       4.210  11.146  20.968  0.00  0.00    -0.360 OA
HETATM   28  H   UNL     1       3.959  10.193  20.920  0.00  0.00     0.217 HD
ENDBRANCH   2  27
BRANCH   7  29
HETATM   29  C   UNL     1      10.548  12.061  23.073  0.00  0.00     0.275 C 
HETATM   30  O   UNL     1      11.020  11.021  23.539  0.00  0.00    -0.266 OA
HETATM   31  N   UNL     1      10.876  13.325  23.634  0.00  0.00    -0.347 N 
HETATM   32  C   UNL     1      11.860  13.337  24.718  0.00  0.00     0.126 C 
HETATM   33  C   UNL     1       9.907  14.428  23.678  0.00  0.00     0.126 C 
HETATM   34  C   UNL     1      12.548  14.696  24.878  0.00  0.00     0.020 C 
HETATM   35  C   UNL     1      11.536  15.832  24.982  0.00  0.00     0.003 C 
HETATM   36  C   UNL     1      10.589  15.792  23.790  0.00  0.00     0.020 C 
ENDBRANCH   7  29
TORSDOF 5
ENDMDL
MODEL 7
REMARK VINA RESULT:    -8.301      5.349      6.986
REMARK INTER + INTRA:         -11.223
REMARK INTER:                 -10.227
REMARK INTRA:                  -0.996
REMARK UNBOUND:                -0.738
REMARK  5 active torsions:
REMARK  status: ('A' for Active; 'I' for Inactive)
REMARK    1  A    between atoms: N_6  and  C_7 
REMARK    2  A    between atoms: C_12  and  N_13 
REMARK       I    between atoms: N_13  and  C_15 
REMARK    3  A    between atoms: C_15  and  C_17 
REMARK    4  A    between atoms: C_18  and  O_20 
REMARK    5  A    between atoms: C_24  and  C_28 
REMARK       I    between atoms: C_28  and  N_30 
ROOT
HETATM    1  C   UNL     1       6.006  12.916  23.780  0.00  0.00     0.066 C 
HETATM    2  C   UNL     1       5.473  14.069  23.173  0.00  0.00     0.083 C 
HETATM    3  C   UNL     1       6.273  15.022  22.530  0.00  0.00     0.069 C 
HETATM    4  C   UNL     1       7.402  12.707  23.675  0.00  0.00     0.036 C 
HETATM    5  C   UNL     1       8.248  13.727  23.171  0.00  0.00     0.029 C 
HETATM    6  C   UNL     1       7.654  14.832  22.576  0.00  0.00     0.065 C 
HETATM    7  C   UNL     1       9.661  14.009  23.151  0.00  0.00     0.157 C 
HETATM    8  N   UNL     1       9.902  15.122  22.425  0.00  0.00    -0.168 NA
HETATM    9  N   UNL     1       8.688  15.580  22.095  0.00  0.00    -0.277 N 
HETATM   10  H   UNL     1       8.631  16.437  21.554  0.00  0.00     0.189 HD
ENDROOT
BRANCH   1  11
HETATM   11  C   UNL     1       5.069  11.977  24.530  0.00  0.00     0.260 C 
HETATM   12  N   UNL     1       4.397  10.902  23.879  0.00  0.00    -0.318 N 
HETATM   13  C   UNL     1       4.616  10.656  22.450  0.00  0.00     0.159 C 
HETATM   14  O   UNL     1       5.016  12.200  25.752  0.00  0.00    -0.267 OA
BRANCH  12  15
HETATM   15  C   UNL     1       3.556   9.927  24.573  0.00  0.00     0.037 A 
HETATM   16  C   UNL     1       4.114   9.034  25.504  0.00  0.00     0.032 A 
HETATM   17  C   UNL     1       3.335   8.197  26.323  0.00  0.00     0.031 A 
HETATM   18  C   UNL     1       1.945   8.148  26.237  0.00  0.00     0.030 A 
HETATM   19  C   UNL     1       1.388   8.951  25.234  0.00  0.00     0.031 A 
HETATM   20  C   UNL     1       2.168   9.818  24.424  0.00  0.00     0.032 A 
BRANCH  18  21
HETATM   21  N   UNL     1       1.209   7.344  27.082  0.00  0.00    -0.377 N 
HETATM   22  C   UNL     1      -0.262   7.315  27.122  0.00  0.00     0.149 C 
HETATM   23  C   UNL     1      -0.764   7.748  28.508  0.00  0.00     0.187 C 
HETATM   24  O   UNL     1      -0.189   6.945  29.554  0.00  0.00    -0.388 OA
HETATM   25  C   UNL     1       1.244   7.056  29.534  0.00  0.00     0.187 C 
HETATM   26  C   UNL     1       1.834   6.593  28.190  0.00  0.00     0.149 C 
ENDBRANCH  18  21
ENDBRANCH  12  15
ENDBRANCH   1  11
BRANCH   2  27
HETATM   27  O   UNL     1       4.127  14.354  23.162  0.00  0.00    -0.360 OA
HETATM   28  H   UNL     1       3.664  13.627  23.640  0.00  0.00     0.217 HD
ENDBRANCH   2  27
BRANCH   7  29
HETATM   29  C   UNL     1      10.742  13.239  23.821  0.00  0.00     0.275 C 
HETATM   30  O   UNL     1      11.237  12.262  23.254  0.00  0.00    -0.266 OA
HETATM   31  N   UNL     1      11.178  13.624  25.119  0.00  0.00    -0.347 N 
HETATM   32  C   UNL     1      12.290  12.869  25.698  0.00  0.00     0.126 C 
HETATM   33  C   UNL     1      10.257  14.206  26.105  0.00  0.00     0.126 C 
HETATM   34  C   UNL     1      13.035  13.652  26.783  0.00  0.00     0.020 C 
HETATM   35  C   UNL     1      12.080  14.205  27.837  0.00  0.00     0.003 C 
HETATM   36  C   UNL     1      10.990  15.028  27.164  0.00  0.00     0.020 C 
ENDBRANCH   7  29
TORSDOF 5
ENDMDL
MODEL 8
REMARK VINA RESULT:    -8.224      2.760     10.308
REMARK INTER + INTRA:         -11.125
REMARK INTER:                  -9.963
REMARK INTRA:                  -1.162
REMARK UNBOUND:                -0.738
REMARK  5 active torsions:
REMARK  status: ('A' for Active; 'I' for Inactive)
REMARK    1  A    between atoms: N_6  and  C_7 
REMARK    2  A    between atoms: C_12  and  N_13 
REMARK       I    between atoms: N_13  and  C_15 
REMARK    3  A    between atoms: C_15  and  C_17 
REMARK    4  A    between atoms: C_18  and  O_20 
REMARK    5  A    between atoms: C_24  and  C_28 
REMARK       I    between atoms: C_28  and  N_30 
ROOT
HETATM    1  C   UNL     1       5.295   9.775  18.730  0.00  0.00     0.066 C 
HETATM    2  C   UNL     1       4.451  10.164  17.672  0.00  0.00     0.083 C 
HETATM    3  C   UNL     1       3.717   9.243  16.915  0.00  0.00     0.069 C 
HETATM    4  C   UNL     1       5.344   8.399  19.056  0.00  0.00     0.036 C 
HETATM    5  C   UNL     1       4.738   7.435  18.210  0.00  0.00     0.029 C 
HETATM    6  C   UNL     1       3.910   7.889  17.193  0.00  0.00     0.065 C 
HETATM    7  C   UNL     1       4.785   6.005  18.041  0.00  0.00     0.157 C 
HETATM    8  N   UNL     1       3.894   5.619  17.101  0.00  0.00    -0.168 NA
HETATM    9  N   UNL     1       3.390   6.764  16.623  0.00  0.00    -0.277 N 
HETATM   10  H   UNL     1       2.703   6.710  15.879  0.00  0.00     0.189 HD
ENDROOT
BRANCH   1  11
HETATM   11  C   UNL     1       6.120  10.839  19.444  0.00  0.00     0.260 C 
HETATM   12  N   UNL     1       5.831  11.248  20.778  0.00  0.00    -0.318 N 
HETATM   13  C   UNL     1       4.727  10.626  21.515  0.00  0.00     0.159 C 
HETATM   14  O   UNL     1       7.090  11.242  18.781  0.00  0.00    -0.267 OA
BRANCH  12  15
HETATM   15  C   UNL     1       6.645  12.203  21.532  0.00  0.00     0.037 A 
HETATM   16  C   UNL     1       7.908  11.832  22.026  0.00  0.00     0.032 A 
HETATM   17  C   UNL     1       8.801  12.752  22.605  0.00  0.00     0.031 A 
HETATM   18  C   UNL     1       8.483  14.097  22.782  0.00  0.00     0.030 A 
HETATM   19  C   UNL     1       7.184  14.451  22.395  0.00  0.00     0.031 A 
HETATM   20  C   UNL     1       6.288  13.532  21.786  0.00  0.00     0.032 A 
BRANCH  18  21
HETATM   21  N   UNL     1       9.397  14.979  23.317  0.00  0.00    -0.377 N 
HETATM   22  C   UNL     1      10.333  15.786  22.518  0.00  0.00     0.149 C 
HETATM   23  C   UNL     1      11.783  15.422  22.869  0.00  0.00     0.187 C 
HETATM   24  O   UNL     1      12.037  15.557  24.278  0.00  0.00    -0.388 OA
HETATM   25  C   UNL     1      11.159  14.699  25.025  0.00  0.00     0.187 C 
HETATM   26  C   UNL     1       9.679  15.033  24.766  0.00  0.00     0.149 C 
ENDBRANCH  18  21
ENDBRANCH  12  15
ENDBRANCH   1  11
BRANCH   2  27
HETATM   27  O   UNL     1       4.280  11.476  17.296  0.00  0.00    -0.360 OA
HETATM   28  H   UNL     1       3.310  11.647  17.244  0.00  0.00     0.217 HD
ENDBRANCH   2  27
BRANCH   7  29
HETATM   29  C   UNL     1       5.667   5.042  18.752  0.00  0.00     0.275 C 
HETATM   30  O   UNL     1       6.445   4.335  18.107  0.00  0.00    -0.266 OA
HETATM   31  N   UNL     1       5.588   4.932  20.167  0.00  0.00    -0.347 N 
HETATM   32  C   UNL     1       6.528   4.016  20.817  0.00  0.00     0.126 C 
HETATM   33  C   UNL     1       4.323   5.120  20.890  0.00  0.00     0.126 C 
HETATM   34  C   UNL     1       6.758   4.353  22.293  0.00  0.00     0.020 C 
HETATM   35  C   UNL     1       5.442   4.491  23.053  0.00  0.00     0.003 C 
HETATM   36  C   UNL     1       4.545   5.504  22.353  0.00  0.00     0.020 C 
ENDBRANCH   7  29
TORSDOF 5
ENDMDL
MODEL 9
REMARK VINA RESULT:    -8.120      5.403      6.991
REMARK INTER + INTRA:         -10.994
REMARK INTER:                 -10.256
REMARK INTRA:                  -0.738
REMARK UNBOUND:                -0.738
REMARK  5 active torsions:
REMARK  status: ('A' for Active; 'I' for Inactive)
REMARK    1  A    between atoms: N_6  and  C_7 
REMARK    2  A    between atoms: C_12  and  N_13 
REMARK       I    between atoms: N_13  and  C_15 
REMARK    3  A    between atoms: C_15  and  C_17 
REMARK    4  A    between atoms: C_18  and  O_20 
REMARK    5  A    between atoms: C_24  and  C_28 
REMARK       I    between atoms: C_28  and  N_30 
ROOT
HETATM    1  C   UNL     1       7.494  11.111  22.911  0.00  0.00     0.066 C 
HETATM    2  C   UNL     1       7.631  11.144  21.510  0.00  0.00     0.083 C 
HETATM    3  C   UNL     1       8.552  11.976  20.861  0.00  0.00     0.069 C 
HETATM    4  C   UNL     1       8.371  11.919  23.674  0.00  0.00     0.036 C 
HETATM    5  C   UNL     1       9.198  12.882  23.041  0.00  0.00     0.029 C 
HETATM    6  C   UNL     1       9.294  12.850  21.656  0.00  0.00     0.065 C 
HETATM    7  C   UNL     1       9.984  14.021  23.441  0.00  0.00     0.157 C 
HETATM    8  N   UNL     1      10.653  14.521  22.380  0.00  0.00    -0.168 NA
HETATM    9  N   UNL     1      10.223  13.797  21.339  0.00  0.00    -0.277 N 
HETATM   10  H   UNL     1      10.588  14.020  20.418  0.00  0.00     0.189 HD
ENDROOT
BRANCH   1  11
HETATM   11  C   UNL     1       6.408  10.237  23.525  0.00  0.00     0.260 C 
HETATM   12  N   UNL     1       5.186  10.782  24.013  0.00  0.00    -0.318 N 
HETATM   13  C   UNL     1       4.931  12.223  23.911  0.00  0.00     0.159 C 
HETATM   14  O   UNL     1       6.667   9.022  23.485  0.00  0.00    -0.267 OA
BRANCH  12  15
HETATM   15  C   UNL     1       4.082   9.975  24.533  0.00  0.00     0.037 A 
HETATM   16  C   UNL     1       4.309   9.011  25.531  0.00  0.00     0.032 A 
HETATM   17  C   UNL     1       3.268   8.330  26.187  0.00  0.00     0.031 A 
HETATM   18  C   UNL     1       1.926   8.520  25.862  0.00  0.00     0.030 A 
HETATM   19  C   UNL     1       1.697   9.394  24.792  0.00  0.00     0.031 A 
HETATM   20  C   UNL     1       2.743  10.105  24.145  0.00  0.00     0.032 A 
BRANCH  18  21
HETATM   21  N   UNL     1       0.928   7.865  26.552  0.00  0.00    -0.377 N 
HETATM   22  C   UNL     1      -0.489   8.261  26.530  0.00  0.00     0.149 C 
HETATM   23  C   UNL     1      -0.956   8.641  27.943  0.00  0.00     0.187 C 
HETATM   24  O   UNL     1      -0.717   7.579  28.884  0.00  0.00    -0.388 OA
HETATM   25  C   UNL     1       0.685   7.269  28.936  0.00  0.00     0.187 C 
HETATM   26  C   UNL     1       1.225   6.830  27.563  0.00  0.00     0.149 C 
ENDBRANCH  18  21
ENDBRANCH  12  15
ENDBRANCH   1  11
BRANCH   2  27
HETATM   27  O   UNL     1       6.874  10.365  20.666  0.00  0.00    -0.360 OA
HETATM   28  H   UNL     1       5.925  10.565  20.847  0.00  0.00     0.217 HD
ENDBRANCH   2  27
BRANCH   7  29
HETATM   29  C   UNL     1      10.077  14.618  24.801  0.00  0.00     0.275 C 
HETATM   30  O   UNL     1       9.172  15.350  25.209  0.00  0.00    -0.266 OA
HETATM   31  N   UNL     1      11.219  14.354  25.605  0.00  0.00    -0.347 N 
HETATM   32  C   UNL     1      11.223  14.914  26.959  0.00  0.00     0.126 C 
HETATM   33  C   UNL     1      12.553  14.166  25.020  0.00  0.00     0.126 C 
HETATM   34  C   UNL     1      12.162  14.163  27.907  0.00  0.00     0.020 C 
HETATM   35  C   UNL     1      13.563  14.021  27.319  0.00  0.00     0.003 C 
HETATM   36  C   UNL     1      13.482  13.376  25.942  0.00  0.00     0.020 C 
ENDBRANCH   7  29
TORSDOF 5
ENDMDL
