MODEL 1
REMARK VINA RESULT:    -7.684      0.000      0.000
REMARK INTER + INTRA:          -8.999
REMARK INTER:                  -8.668
REMARK INTRA:                  -0.330
REMARK UNBOUND:                -0.416
REMARK  3 active torsions:
REMARK  status: ('A' for Active; 'I' for Inactive)
REMARK    1  A    between atoms: O_1  and  C_2 
REMARK    2  A    between atoms: C_9  and  N_10 
REMARK    3  A    between atoms: C_12  and  C_13 
REMARK       I    between atoms: C_13  and  N_15 
ROOT
HETATM    1  C   UNL     1       3.317   6.090  22.487  0.00  0.00     0.066 A 
HETATM    2  C   UNL     1       3.182   6.812  21.307  0.00  0.00     0.053 A 
HETATM    3  C   UNL     1       4.570   5.828  23.007  0.00  0.00     0.039 A 
HETATM    4  C   UNL     1       5.699   6.303  22.340  0.00  0.00     0.035 A 
HETATM    5  C   UNL     1       5.601   7.049  21.173  0.00  0.00     0.073 A 
HETATM    6  C   UNL     1       4.334   7.308  20.633  0.00  0.00     0.030 A 
HETATM    7  N   UNL     1       6.739   7.472  20.614  0.00  0.00    -0.218 NA
HETATM    8  C   UNL     1       6.659   8.219  19.519  0.00  0.00     0.200 A 
HETATM    9  N   UNL     1       5.532   8.522  18.898  0.00  0.00    -0.212 NA
HETATM   10  C   UNL     1       4.384   8.040  19.436  0.00  0.00     0.140 A 
ENDROOT
BRANCH  10  11
HETATM   11  C   UNL     1       3.154   8.288  18.582  0.00  0.00     0.273 C 
HETATM   12  O   UNL     1       2.618   9.395  18.579  0.00  0.00    -0.266 OA
HETATM   13  N   UNL     1       2.649   7.218  17.847  0.00  0.00    -0.342 N 
HETATM   14  C   UNL     1       1.487   7.326  16.961  0.00  0.00     0.139 C 
HETATM   15  C   UNL     1       3.173   5.869  17.861  0.00  0.00     0.161 C 
HETATM   16  C   UNL     1       0.854   5.928  17.013  0.00  0.00     0.056 C 
HETATM   17  C   UNL     1       2.041   5.053  17.342  0.00  0.00    -0.056 C 
HETATM   18  C   UNL     1       0.103   5.388  15.822  0.00  0.00    -0.020 C 
HETATM   19  C   UNL     1       2.063   3.734  17.090  0.00  0.00    -0.018 C 
HETATM   20  C   UNL     1       0.918   3.075  16.372  0.00  0.00     0.054 C 
HETATM   21  C   UNL     1       0.109   4.064  15.559  0.00  0.00    -0.026 C 
ENDBRANCH  10  11
BRANCH   8  22
HETATM   22  N   UNL     1       7.835   8.637  18.938  0.00  0.00    -0.271 NA
HETATM   23  H   UNL     1       8.534   8.819  19.645  0.00  0.00     0.127 HD
HETATM   24  H   UNL     1       8.093   8.039  18.167  0.00  0.00     0.127 HD
ENDBRANCH   8  22
BRANCH   1  25
HETATM   25  O   UNL     1       2.237   5.627  23.174  0.00  0.00    -0.361 OA
HETATM   26  H   UNL     1       2.525   5.336  24.056  0.00  0.00     0.217 HD
ENDBRANCH   1  25
TORSDOF 3
ENDMDL
MODEL 2
REMARK VINA RESULT:    -7.414      2.105      6.089
REMARK INTER + INTRA:          -8.697
REMARK INTER:                  -8.252
REMARK INTRA:                  -0.445
REMARK UNBOUND:                -0.416
REMARK  3 active torsions:
REMARK  status: ('A' for Active; 'I' for Inactive)
REMARK    1  A    between atoms: O_1  and  C_2 
REMARK    2  A    between atoms: C_9  and  N_10 
REMARK    3  A    between atoms: C_12  and  C_13 
REMARK       I    between atoms: C_13  and  N_15 
ROOT
HETATM    1  C   UNL     1       2.249   4.199  17.168  0.00  0.00     0.066 A 
HETATM    2  C   UNL     1       3.120   5.126  17.727  0.00  0.00     0.053 A 
HETATM    3  C   UNL     1       1.019   4.598  16.681  0.00  0.00     0.039 A 
HETATM    4  C   UNL     1       0.665   5.946  16.749  0.00  0.00     0.035 A 
HETATM    5  C   UNL     1       1.520   6.903  17.277  0.00  0.00     0.073 A 
HETATM    6  C   UNL     1       2.763   6.503  17.784  0.00  0.00     0.030 A 
HETATM    7  N   UNL     1       1.096   8.171  17.285  0.00  0.00    -0.218 NA
HETATM    8  C   UNL     1       1.918   9.104  17.752  0.00  0.00     0.200 A 
HETATM    9  N   UNL     1       3.108   8.861  18.275  0.00  0.00    -0.212 NA
HETATM   10  C   UNL     1       3.509   7.566  18.318  0.00  0.00     0.140 A 
ENDROOT
BRANCH  10  11
HETATM   11  C   UNL     1       4.805   7.349  19.077  0.00  0.00     0.273 C 
HETATM   12  O   UNL     1       5.885   7.492  18.507  0.00  0.00    -0.266 OA
HETATM   13  N   UNL     1       4.717   6.954  20.410  0.00  0.00    -0.342 N 
HETATM   14  C   UNL     1       5.888   6.740  21.266  0.00  0.00     0.139 C 
HETATM   15  C   UNL     1       3.489   6.687  21.127  0.00  0.00     0.161 C 
HETATM   16  C   UNL     1       5.430   5.649  22.246  0.00  0.00     0.056 C 
HETATM   17  C   UNL     1       3.934   5.859  22.281  0.00  0.00    -0.056 C 
HETATM   18  C   UNL     1       5.998   5.595  23.642  0.00  0.00    -0.020 C 
HETATM   19  C   UNL     1       3.164   5.425  23.291  0.00  0.00    -0.018 C 
HETATM   20  C   UNL     1       3.782   4.774  24.498  0.00  0.00     0.054 C 
HETATM   21  C   UNL     1       5.238   5.153  24.666  0.00  0.00    -0.026 C 
ENDBRANCH  10  11
BRANCH   8  22
HETATM   22  N   UNL     1       1.469  10.404  17.774  0.00  0.00    -0.271 NA
HETATM   23  H   UNL     1       0.926  10.578  18.609  0.00  0.00     0.127 HD
HETATM   24  H   UNL     1       2.214  11.050  17.558  0.00  0.00     0.127 HD
ENDBRANCH   8  22
BRANCH   1  25
HETATM   25  O   UNL     1       2.570   2.879  17.070  0.00  0.00    -0.361 OA
HETATM   26  H   UNL     1       1.767   2.348  17.198  0.00  0.00     0.217 HD
ENDBRANCH   1  25
TORSDOF 3
ENDMDL
MODEL 3
REMARK VINA RESULT:    -7.207      7.211     10.081
REMARK INTER + INTRA:          -8.466
REMARK INTER:                  -8.235
REMARK INTRA:                  -0.231
REMARK UNBOUND:                -0.416
REMARK  3 active torsions:
REMARK  status: ('A' for Active; 'I' for Inactive)
REMARK    1  A    between atoms: O_1  and  C_2 
REMARK    2  A    between atoms: C_9  and  N_10 
REMARK    3  A    between atoms: C_12  and  C_13 
REMARK       I    between atoms: C_13  and  N_15 
ROOT
HETATM    1  C   UNL     1      -2.071  11.466  24.475  0.00  0.00     0.066 A 
HETATM    2  C   UNL     1      -1.381  10.311  24.822  0.00  0.00     0.053 A 
HETATM    3  C   UNL     1      -1.387  12.584  24.036  0.00  0.00     0.039 A 
HETATM    4  C   UNL     1       0.003  12.537  23.936  0.00  0.00     0.035 A 
HETATM    5  C   UNL     1       0.723  11.392  24.250  0.00  0.00     0.073 A 
HETATM    6  C   UNL     1       0.037  10.259  24.707  0.00  0.00     0.030 A 
HETATM    7  N   UNL     1       2.051  11.441  24.108  0.00  0.00    -0.218 NA
HETATM    8  C   UNL     1       2.750  10.342  24.367  0.00  0.00     0.200 A 
HETATM    9  N   UNL     1       2.231   9.214  24.822  0.00  0.00    -0.212 NA
HETATM   10  C   UNL     1       0.889   9.189  25.020  0.00  0.00     0.140 A 
ENDROOT
BRANCH  10  11
HETATM   11  C   UNL     1       0.392   7.924  25.695  0.00  0.00     0.273 C 
HETATM   12  O   UNL     1      -0.286   7.114  25.065  0.00  0.00    -0.266 OA
HETATM   13  N   UNL     1       0.701   7.744  27.041  0.00  0.00    -0.342 N 
HETATM   14  C   UNL     1       0.309   6.556  27.806  0.00  0.00     0.139 C 
HETATM   15  C   UNL     1       1.422   8.686  27.870  0.00  0.00     0.161 C 
HETATM   16  C   UNL     1       0.133   7.084  29.238  0.00  0.00     0.056 C 
HETATM   17  C   UNL     1       1.060   8.277  29.255  0.00  0.00    -0.056 C 
HETATM   18  C   UNL     1       0.394   6.183  30.418  0.00  0.00    -0.020 C 
HETATM   19  C   UNL     1       1.548   8.801  30.391  0.00  0.00    -0.018 C 
HETATM   20  C   UNL     1       1.255   8.155  31.718  0.00  0.00     0.054 C 
HETATM   21  C   UNL     1       0.876   6.696  31.570  0.00  0.00    -0.026 C 
ENDBRANCH  10  11
BRANCH   8  22
HETATM   22  N   UNL     1       4.118  10.404  24.237  0.00  0.00    -0.271 NA
HETATM   23  H   UNL     1       4.372  10.747  23.321  0.00  0.00     0.127 HD
HETATM   24  H   UNL     1       4.540  10.851  25.038  0.00  0.00     0.127 HD
ENDBRANCH   8  22
BRANCH   1  25
HETATM   25  O   UNL     1      -3.429  11.540  24.542  0.00  0.00    -0.361 OA
HETATM   26  H   UNL     1      -3.754  10.842  25.134  0.00  0.00     0.217 HD
ENDBRANCH   1  25
TORSDOF 3
ENDMDL
MODEL 4
REMARK VINA RESULT:    -7.189      2.652      6.428
REMARK INTER + INTRA:          -8.445
REMARK INTER:                  -7.991
REMARK INTRA:                  -0.454
REMARK UNBOUND:                -0.416
REMARK  3 active torsions:
REMARK  status: ('A' for Active; 'I' for Inactive)
REMARK    1  A    between atoms: O_1  and  C_2 
REMARK    2  A    between atoms: C_9  and  N_10 
REMARK    3  A    between atoms: C_12  and  C_13 
REMARK       I    between atoms: C_13  and  N_15 
ROOT
HETATM    1  C   UNL     1       1.610   6.299  19.120  0.00  0.00     0.066 A 
HETATM    2  C   UNL     1       2.607   6.092  20.064  0.00  0.00     0.053 A 
HETATM    3  C   UNL     1       1.828   7.137  18.042  0.00  0.00     0.039 A 
HETATM    4  C   UNL     1       3.066   7.765  17.908  0.00  0.00     0.035 A 
HETATM    5  C   UNL     1       4.095   7.561  18.818  0.00  0.00     0.073 A 
HETATM    6  C   UNL     1       3.876   6.723  19.919  0.00  0.00     0.030 A 
HETATM    7  N   UNL     1       5.249   8.197  18.596  0.00  0.00    -0.218 NA
HETATM    8  C   UNL     1       6.255   7.982  19.436  0.00  0.00     0.200 A 
HETATM    9  N   UNL     1       6.177   7.232  20.522  0.00  0.00    -0.212 NA
HETATM   10  C   UNL     1       4.985   6.636  20.775  0.00  0.00     0.140 A 
ENDROOT
BRANCH  10  11
HETATM   11  C   UNL     1       4.924   5.930  22.116  0.00  0.00     0.273 C 
HETATM   12  O   UNL     1       5.314   4.768  22.220  0.00  0.00    -0.266 OA
HETATM   13  N   UNL     1       4.384   6.629  23.193  0.00  0.00    -0.342 N 
HETATM   14  C   UNL     1       4.292   6.078  24.548  0.00  0.00     0.139 C 
HETATM   15  C   UNL     1       3.830   7.965  23.133  0.00  0.00     0.161 C 
HETATM   16  C   UNL     1       3.042   6.752  25.134  0.00  0.00     0.056 C 
HETATM   17  C   UNL     1       2.979   8.042  24.351  0.00  0.00    -0.056 C 
HETATM   18  C   UNL     1       2.945   7.016  26.616  0.00  0.00    -0.020 C 
HETATM   19  C   UNL     1       2.313   9.124  24.787  0.00  0.00    -0.018 C 
HETATM   20  C   UNL     1       1.660   9.124  26.143  0.00  0.00     0.054 C 
HETATM   21  C   UNL     1       2.271   8.094  27.069  0.00  0.00    -0.026 C 
ENDBRANCH  10  11
BRANCH   8  22
HETATM   22  N   UNL     1       7.435   8.653  19.212  0.00  0.00    -0.271 NA
HETATM   23  H   UNL     1       7.268   9.496  18.679  0.00  0.00     0.127 HD
HETATM   24  H   UNL     1       7.973   8.737  20.062  0.00  0.00     0.127 HD
ENDBRANCH   8  22
BRANCH   1  25
HETATM   25  O   UNL     1       0.396   5.688  19.210  0.00  0.00    -0.361 OA
HETATM   26  H   UNL     1       0.525   4.725  19.186  0.00  0.00     0.217 HD
ENDBRANCH   1  25
TORSDOF 3
ENDMDL
MODEL 5
REMARK VINA RESULT:    -7.033      2.544      6.096
REMARK INTER + INTRA:          -8.271
REMARK INTER:                  -7.809
REMARK INTRA:                  -0.462
REMARK UNBOUND:                -0.416
REMARK  3 active torsions:
REMARK  status: ('A' for Active; 'I' for Inactive)
REMARK    1  A    between atoms: O_1  and  C_2 
REMARK    2  A    between atoms: C_9  and  N_10 
REMARK    3  A    between atoms: C_12  and  C_13 
REMARK       I    between atoms: C_13  and  N_15 
ROOT
HETATM    1  C   UNL     1       0.846   6.212  18.524  0.00  0.00     0.066 A 
HETATM    2  C   UNL     1       1.903   5.649  19.229  0.00  0.00     0.053 A 
HETATM    3  C   UNL     1       1.024   7.383  17.812  0.00  0.00     0.039 A 
HETATM    4  C   UNL     1       2.281   7.988  17.799  0.00  0.00     0.035 A 
HETATM    5  C   UNL     1       3.366   7.441  18.471  0.00  0.00     0.073 A 
HETATM    6  C   UNL     1       3.189   6.261  19.205  0.00  0.00     0.030 A 
HETATM    7  N   UNL     1       4.532   8.087  18.388  0.00  0.00    -0.218 NA
HETATM    8  C   UNL     1       5.588   7.556  18.993  0.00  0.00     0.200 A 
HETATM    9  N   UNL     1       5.555   6.459  19.732  0.00  0.00    -0.212 NA
HETATM   10  C   UNL     1       4.356   5.839  19.861  0.00  0.00     0.140 A 
ENDROOT
BRANCH  10  11
HETATM   11  C   UNL     1       4.363   4.690  20.852  0.00  0.00     0.273 C 
HETATM   12  O   UNL     1       4.648   3.554  20.477  0.00  0.00    -0.266 OA
HETATM   13  N   UNL     1       4.003   4.968  22.169  0.00  0.00    -0.342 N 
HETATM   14  C   UNL     1       3.996   3.959  23.232  0.00  0.00     0.139 C 
HETATM   15  C   UNL     1       3.578   6.258  22.668  0.00  0.00     0.161 C 
HETATM   16  C   UNL     1       2.882   4.431  24.178  0.00  0.00     0.056 C 
HETATM   17  C   UNL     1       2.865   5.921  23.931  0.00  0.00    -0.056 C 
HETATM   18  C   UNL     1       2.960   4.131  25.654  0.00  0.00    -0.020 C 
HETATM   19  C   UNL     1       2.352   6.797  24.811  0.00  0.00    -0.018 C 
HETATM   20  C   UNL     1       1.843   6.329  26.146  0.00  0.00     0.054 C 
HETATM   21  C   UNL     1       2.442   4.998  26.550  0.00  0.00    -0.026 C 
ENDBRANCH  10  11
BRANCH   8  22
HETATM   22  N   UNL     1       6.782   8.235  18.919  0.00  0.00    -0.271 NA
HETATM   23  H   UNL     1       6.741   8.948  18.203  0.00  0.00     0.127 HD
HETATM   24  H   UNL     1       7.102   8.510  19.836  0.00  0.00     0.127 HD
ENDBRANCH   8  22
BRANCH   1  25
HETATM   25  O   UNL     1      -0.388   5.638  18.499  0.00  0.00    -0.361 OA
HETATM   26  H   UNL     1      -1.061   6.337  18.452  0.00  0.00     0.217 HD
ENDBRANCH   1  25
TORSDOF 3
ENDMDL
MODEL 6
REMARK VINA RESULT:    -6.876      8.206      9.836
REMARK INTER + INTRA:          -8.096
REMARK INTER:                  -8.111
REMARK INTRA:                   0.015
REMARK UNBOUND:                -0.416
REMARK  3 active torsions:
REMARK  status: ('A' for Active; 'I' for Inactive)
REMARK    1  A    between atoms: O_1  and  C_2 
REMARK    2  A    between atoms: C_9  and  N_10 
REMARK    3  A    between atoms: C_12  and  C_13 
REMARK       I    between atoms: C_13  and  N_15 
ROOT
HETATM    1  C   UNL     1       1.271   8.381  31.048  0.00  0.00     0.066 A 
HETATM    2  C   UNL     1       1.463   8.517  29.678  0.00  0.00     0.053 A 
HETATM    3  C   UNL     1       0.513   7.339  31.549  0.00  0.00     0.039 A 
HETATM    4  C   UNL     1      -0.049   6.419  30.665  0.00  0.00     0.035 A 
HETATM    5  C   UNL     1       0.142   6.509  29.293  0.00  0.00     0.073 A 
HETATM    6  C   UNL     1       0.899   7.569  28.777  0.00  0.00     0.030 A 
HETATM    7  N   UNL     1      -0.426   5.571  28.528  0.00  0.00    -0.218 NA
HETATM    8  C   UNL     1      -0.220   5.621  27.217  0.00  0.00     0.200 A 
HETATM    9  N   UNL     1       0.457   6.576  26.601  0.00  0.00    -0.212 NA
HETATM   10  C   UNL     1       0.982   7.557  27.376  0.00  0.00     0.140 A 
ENDROOT
BRANCH  10  11
HETATM   11  C   UNL     1       1.599   8.697  26.587  0.00  0.00     0.273 C 
HETATM   12  O   UNL     1       2.789   8.974  26.732  0.00  0.00    -0.266 OA
HETATM   13  N   UNL     1       0.767   9.424  25.739  0.00  0.00    -0.342 N 
HETATM   14  C   UNL     1       1.238  10.529  24.900  0.00  0.00     0.139 C 
HETATM   15  C   UNL     1      -0.656   9.212  25.576  0.00  0.00     0.161 C 
HETATM   16  C   UNL     1       0.018  11.456  24.795  0.00  0.00     0.056 C 
HETATM   17  C   UNL     1      -1.131  10.495  24.988  0.00  0.00    -0.056 C 
HETATM   18  C   UNL     1      -0.190  12.304  23.565  0.00  0.00    -0.020 C 
HETATM   19  C   UNL     1      -2.380  10.764  24.575  0.00  0.00    -0.018 C 
HETATM   20  C   UNL     1      -2.676  12.024  23.809  0.00  0.00     0.054 C 
HETATM   21  C   UNL     1      -1.440  12.590  23.143  0.00  0.00    -0.026 C 
ENDBRANCH  10  11
BRANCH   8  22
HETATM   22  N   UNL     1      -0.823   4.664  26.434  0.00  0.00    -0.271 NA
HETATM   23  H   UNL     1      -1.440   5.095  25.759  0.00  0.00     0.127 HD
HETATM   24  H   UNL     1      -0.147   3.996  26.091  0.00  0.00     0.127 HD
ENDBRANCH   8  22
BRANCH   1  25
HETATM   25  O   UNL     1       1.821   9.250  31.940  0.00  0.00    -0.361 OA
HETATM   26  H   UNL     1       2.783   9.114  31.961  0.00  0.00     0.217 HD
ENDBRANCH   1  25
TORSDOF 3
ENDMDL
MODEL 7
REMARK VINA RESULT:    -6.874      7.636      9.006
REMARK INTER + INTRA:          -8.094
REMARK INTER:                  -7.660
REMARK INTRA:                  -0.435
REMARK UNBOUND:                -0.416
REMARK  3 active torsions:
REMARK  status: ('A' for Active; 'I' for Inactive)
REMARK    1  A    between atoms: O_1  and  C_2 
REMARK    2  A    between atoms: C_9  and  N_10 
REMARK    3  A    between atoms: C_12  and  C_13 
REMARK       I    between atoms: C_13  and  N_15 
ROOT
HETATM    1  C   UNL     1       1.485   8.471  30.590  0.00  0.00     0.066 A 
HETATM    2  C   UNL     1       1.064   8.336  29.272  0.00  0.00     0.053 A 
HETATM    3  C   UNL     1       2.771   8.122  30.953  0.00  0.00     0.039 A 
HETATM    4  C   UNL     1       3.647   7.641  29.980  0.00  0.00     0.035 A 
HETATM    5  C   UNL     1       3.270   7.518  28.649  0.00  0.00     0.073 A 
HETATM    6  C   UNL     1       1.963   7.859  28.277  0.00  0.00     0.030 A 
HETATM    7  N   UNL     1       4.184   7.061  27.789  0.00  0.00    -0.218 NA
HETATM    8  C   UNL     1       3.850   6.974  26.507  0.00  0.00     0.200 A 
HETATM    9  N   UNL     1       2.649   7.245  26.025  0.00  0.00    -0.212 NA
HETATM   10  C   UNL     1       1.707   7.652  26.912  0.00  0.00     0.140 A 
ENDROOT
BRANCH  10  11
HETATM   11  C   UNL     1       0.318   7.784  26.315  0.00  0.00     0.273 C 
HETATM   12  O   UNL     1      -0.429   6.809  26.271  0.00  0.00    -0.266 OA
HETATM   13  N   UNL     1      -0.049   9.024  25.797  0.00  0.00    -0.342 N 
HETATM   14  C   UNL     1      -1.368   9.297  25.219  0.00  0.00     0.139 C 
HETATM   15  C   UNL     1       0.801  10.194  25.739  0.00  0.00     0.161 C 
HETATM   16  C   UNL     1      -1.088  10.370  24.157  0.00  0.00     0.056 C 
HETATM   17  C   UNL     1       0.152  11.041  24.700  0.00  0.00    -0.056 C 
HETATM   18  C   UNL     1      -2.143  11.390  23.809  0.00  0.00    -0.020 C 
HETATM   19  C   UNL     1       0.524  12.280  24.340  0.00  0.00    -0.018 C 
HETATM   20  C   UNL     1      -0.343  13.103  23.427  0.00  0.00     0.054 C 
HETATM   21  C   UNL     1      -1.784  12.637  23.437  0.00  0.00    -0.026 C 
ENDBRANCH  10  11
BRANCH   8  22
HETATM   22  N   UNL     1       4.790   6.486  25.628  0.00  0.00    -0.271 NA
HETATM   23  H   UNL     1       4.366   5.837  24.979  0.00  0.00     0.127 HD
HETATM   24  H   UNL     1       5.352   7.232  25.244  0.00  0.00     0.127 HD
ENDBRANCH   8  22
BRANCH   1  25
HETATM   25  O   UNL     1       0.662   8.954  31.561  0.00  0.00    -0.361 OA
HETATM   26  H   UNL     1       0.711   8.369  32.336  0.00  0.00     0.217 HD
ENDBRANCH   1  25
TORSDOF 3
ENDMDL
MODEL 8
REMARK VINA RESULT:    -6.847      2.404      6.271
REMARK INTER + INTRA:          -8.064
REMARK INTER:                  -7.648
REMARK INTRA:                  -0.416
REMARK UNBOUND:                -0.416
REMARK  3 active torsions:
REMARK  status: ('A' for Active; 'I' for Inactive)
REMARK    1  A    between atoms: O_1  and  C_2 
REMARK    2  A    between atoms: C_9  and  N_10 
REMARK    3  A    between atoms: C_12  and  C_13 
REMARK       I    between atoms: C_13  and  N_15 
ROOT
HETATM    1  C   UNL     1       2.025   5.600  19.102  0.00  0.00     0.066 A 
HETATM    2  C   UNL     1       2.629   6.269  20.161  0.00  0.00     0.053 A 
HETATM    3  C   UNL     1       2.613   5.594  17.852  0.00  0.00     0.039 A 
HETATM    4  C   UNL     1       3.826   6.257  17.666  0.00  0.00     0.035 A 
HETATM    5  C   UNL     1       4.470   6.914  18.706  0.00  0.00     0.073 A 
HETATM    6  C   UNL     1       3.873   6.935  19.973  0.00  0.00     0.030 A 
HETATM    7  N   UNL     1       5.635   7.509  18.431  0.00  0.00    -0.218 NA
HETATM    8  C   UNL     1       6.282   8.107  19.424  0.00  0.00     0.200 A 
HETATM    9  N   UNL     1       5.824   8.216  20.660  0.00  0.00    -0.212 NA
HETATM   10  C   UNL     1       4.614   7.661  20.919  0.00  0.00     0.140 A 
ENDROOT
BRANCH  10  11
HETATM   11  C   UNL     1       4.082   7.969  22.307  0.00  0.00     0.273 C 
HETATM   12  O   UNL     1       3.583   9.066  22.547  0.00  0.00    -0.266 OA
HETATM   13  N   UNL     1       4.216   6.985  23.284  0.00  0.00    -0.342 N 
HETATM   14  C   UNL     1       3.721   7.139  24.655  0.00  0.00     0.139 C 
HETATM   15  C   UNL     1       4.863   5.703  23.102  0.00  0.00     0.161 C 
HETATM   16  C   UNL     1       4.695   6.297  25.493  0.00  0.00     0.056 C 
HETATM   17  C   UNL     1       5.172   5.271  24.492  0.00  0.00    -0.056 C 
HETATM   18  C   UNL     1       4.227   5.632  26.763  0.00  0.00    -0.020 C 
HETATM   19  C   UNL     1       5.706   4.094  24.857  0.00  0.00    -0.018 C 
HETATM   20  C   UNL     1       5.772   3.703  26.308  0.00  0.00     0.054 C 
HETATM   21  C   UNL     1       4.760   4.453  27.148  0.00  0.00    -0.026 C 
ENDBRANCH  10  11
BRANCH   8  22
HETATM   22  N   UNL     1       7.472   8.733  19.132  0.00  0.00    -0.271 NA
HETATM   23  H   UNL     1       7.877   8.350  18.289  0.00  0.00     0.127 HD
HETATM   24  H   UNL     1       7.380   9.737  19.193  0.00  0.00     0.127 HD
ENDBRANCH   8  22
BRANCH   1  25
HETATM   25  O   UNL     1       0.852   4.927  19.253  0.00  0.00    -0.361 OA
HETATM   26  H   UNL     1       0.720   4.728  20.195  0.00  0.00     0.217 HD
ENDBRANCH   1  25
TORSDOF 3
ENDMDL
MODEL 9
REMARK VINA RESULT:    -6.844      2.374      3.053
REMARK INTER + INTRA:          -8.061
REMARK INTER:                  -7.621
REMARK INTRA:                  -0.440
REMARK UNBOUND:                -0.416
REMARK  3 active torsions:
REMARK  status: ('A' for Active; 'I' for Inactive)
REMARK    1  A    between atoms: O_1  and  C_2 
REMARK    2  A    between atoms: C_9  and  N_10 
REMARK    3  A    between atoms: C_12  and  C_13 
REMARK       I    between atoms: C_13  and  N_15 
ROOT
HETATM    1  C   UNL     1       5.276   4.725  23.500  0.00  0.00     0.066 A 
HETATM    2  C   UNL     1       5.121   5.495  22.354  0.00  0.00     0.053 A 
HETATM    3  C   UNL     1       5.109   5.290  24.751  0.00  0.00     0.039 A 
HETATM    4  C   UNL     1       4.774   6.640  24.849  0.00  0.00     0.035 A 
HETATM    5  C   UNL     1       4.586   7.433  23.726  0.00  0.00     0.073 A 
HETATM    6  C   UNL     1       4.766   6.871  22.455  0.00  0.00     0.030 A 
HETATM    7  N   UNL     1       4.253   8.713  23.923  0.00  0.00    -0.218 NA
HETATM    8  C   UNL     1       4.032   9.474  22.858  0.00  0.00     0.200 A 
HETATM    9  N   UNL     1       4.184   9.075  21.606  0.00  0.00    -0.212 NA
HETATM   10  C   UNL     1       4.580   7.792  21.413  0.00  0.00     0.140 A 
ENDROOT
BRANCH  10  11
HETATM   11  C   UNL     1       4.891   7.458  19.966  0.00  0.00     0.273 C 
HETATM   12  O   UNL     1       6.006   7.693  19.504  0.00  0.00    -0.266 OA
HETATM   13  N   UNL     1       3.867   6.918  19.191  0.00  0.00    -0.342 N 
HETATM   14  C   UNL     1       4.038   6.523  17.790  0.00  0.00     0.139 C 
HETATM   15  C   UNL     1       2.509   6.688  19.637  0.00  0.00     0.161 C 
HETATM   16  C   UNL     1       2.651   6.749  17.172  0.00  0.00     0.056 C 
HETATM   17  C   UNL     1       1.740   6.588  18.367  0.00  0.00    -0.056 C 
HETATM   18  C   UNL     1       2.183   5.896  16.020  0.00  0.00    -0.020 C 
HETATM   19  C   UNL     1       0.435   6.294  18.250  0.00  0.00    -0.018 C 
HETATM   20  C   UNL     1      -0.169   6.020  16.900  0.00  0.00     0.054 C 
HETATM   21  C   UNL     1       0.873   5.599  15.885  0.00  0.00    -0.026 C 
ENDBRANCH  10  11
BRANCH   8  22
HETATM   22  N   UNL     1       3.707  10.795  23.067  0.00  0.00    -0.271 NA
HETATM   23  H   UNL     1       4.275  11.187  23.806  0.00  0.00     0.127 HD
HETATM   24  H   UNL     1       3.658  11.301  22.195  0.00  0.00     0.127 HD
ENDBRANCH   8  22
BRANCH   1  25
HETATM   25  O   UNL     1       5.585   3.401  23.440  0.00  0.00    -0.361 OA
HETATM   26  H   UNL     1       5.325   3.055  22.570  0.00  0.00     0.217 HD
ENDBRANCH   1  25
TORSDOF 3
ENDMDL
