MODEL 1
REMARK VINA RESULT:    -7.814      0.000      0.000
REMARK INTER + INTRA:         -12.139
REMARK INTER:                 -10.546
REMARK INTRA:                  -1.594
REMARK UNBOUND:                -1.585
REMARK  7 active torsions:
REMARK  status: ('A' for Active; 'I' for Inactive)
REMARK    1  A    between atoms: C_7  and  N_8 
REMARK    2  A    between atoms: C_14  and  C_15 
REMARK    3  A    between atoms: C_16  and  O_17 
REMARK    4  A    between atoms: C_19  and  O_20 
REMARK    5  A    between atoms: C_22  and  C_23 
REMARK       I    between atoms: C_23  and  N_25 
REMARK    6  A    between atoms: N_25  and  C_27 
REMARK    7  A    between atoms: C_27  and  C_28 
ROOT
HETATM    1  C   UNL     1       4.628   7.472  22.382  0.00  0.00     0.046 C 
HETATM    2  C   UNL     1       5.383   6.665  23.268  0.00  0.00     0.082 C 
HETATM    3  C   UNL     1       5.057   6.536  24.613  0.00  0.00     0.075 C 
HETATM    4  C   UNL     1       3.922   7.167  25.108  0.00  0.00     0.084 C 
HETATM    5  C   UNL     1       3.585   8.237  22.946  0.00  0.00     0.038 C 
HETATM    6  C   UNL     1       3.132   7.994  24.283  0.00  0.00     0.066 C 
ENDROOT
BRANCH   1   7
HETATM    7  C   UNL     1       4.972   7.363  20.918  0.00  0.00     0.172 A 
HETATM    8  N   UNL     1       4.237   6.927  19.817  0.00  0.00    -0.244 N 
HETATM    9  C   UNL     1       5.168   6.920  18.773  0.00  0.00     0.349 A 
HETATM   10  O   UNL     1       5.098   6.493  17.633  0.00  0.00    -0.245 OA
HETATM   11  N   UNL     1       6.334   7.440  19.292  0.00  0.00    -0.226 N 
HETATM   12  H   UNL     1       7.220   7.451  18.801  0.00  0.00     0.194 HD
HETATM   13  N   UNL     1       6.214   7.679  20.606  0.00  0.00    -0.151 NA
BRANCH   8  14
HETATM   14  C   UNL     1       2.881   6.519  19.588  0.00  0.00     0.051 C 
HETATM   15  C   UNL     1       2.016   7.050  18.621  0.00  0.00    -0.035 C 
HETATM   16  C   UNL     1       2.078   8.486  18.177  0.00  0.00     0.050 C 
HETATM   17  C   UNL     1       0.837   6.357  18.259  0.00  0.00     0.009 C 
HETATM   18  C   UNL     1       0.340   5.330  19.050  0.00  0.00     0.001 C 
HETATM   19  C   UNL     1       1.038   4.972  20.188  0.00  0.00     0.002 C 
HETATM   20  C   UNL     1       2.308   5.517  20.415  0.00  0.00     0.031 C 
ENDBRANCH   8  14
ENDBRANCH   1   7
BRANCH   2  21
HETATM   21  O   UNL     1       6.471   5.914  22.890  0.00  0.00    -0.360 OA
HETATM   22  H   UNL     1       6.147   5.148  22.368  0.00  0.00     0.217 HD
ENDBRANCH   2  21
BRANCH   6  23
HETATM   23  C   UNL     1       1.662   8.163  24.676  0.00  0.00     0.256 C 
HETATM   24  O   UNL     1       0.970   7.134  24.713  0.00  0.00    -0.267 OA
HETATM   25  N   UNL     1       1.029   9.409  24.812  0.00  0.00    -0.352 N 
HETATM   26  C   UNL     1       1.714  10.685  24.821  0.00  0.00     0.152 C 
BRANCH  25  27
HETATM   27  C   UNL     1      -0.439   9.468  24.662  0.00  0.00     0.125 C 
BRANCH  27  28
HETATM   28  C   UNL     1      -1.083  10.830  24.360  0.00  0.00     0.015 C 
HETATM   29  C   UNL     1      -2.603  10.865  24.392  0.00  0.00     0.006 C 
ENDBRANCH  27  28
ENDBRANCH  25  27
ENDBRANCH   6  23
BRANCH   4  30
HETATM   30  O   UNL     1       3.600   6.945  26.421  0.00  0.00    -0.360 OA
HETATM   31  H   UNL     1       3.553   5.987  26.581  0.00  0.00     0.217 HD
ENDBRANCH   4  30
TORSDOF 7
ENDMDL
MODEL 2
REMARK VINA RESULT:    -7.671      0.501      1.401
REMARK INTER + INTRA:         -11.947
REMARK INTER:                 -10.250
REMARK INTRA:                  -1.697
REMARK UNBOUND:                -1.585
REMARK  7 active torsions:
REMARK  status: ('A' for Active; 'I' for Inactive)
REMARK    1  A    between atoms: C_7  and  N_8 
REMARK    2  A    between atoms: C_14  and  C_15 
REMARK    3  A    between atoms: C_16  and  O_17 
REMARK    4  A    between atoms: C_19  and  O_20 
REMARK    5  A    between atoms: C_22  and  C_23 
REMARK       I    between atoms: C_23  and  N_25 
REMARK    6  A    between atoms: N_25  and  C_27 
REMARK    7  A    between atoms: C_27  and  C_28 
ROOT
HETATM    1  C   UNL     1       4.559   7.544  22.343  0.00  0.00     0.046 C 
HETATM    2  C   UNL     1       5.368   6.758  23.200  0.00  0.00     0.082 C 
HETATM    3  C   UNL     1       5.091   6.615  24.555  0.00  0.00     0.075 C 
HETATM    4  C   UNL     1       3.956   7.210  25.090  0.00  0.00     0.084 C 
HETATM    5  C   UNL     1       3.514   8.276  22.945  0.00  0.00     0.038 C 
HETATM    6  C   UNL     1       3.114   8.015  24.295  0.00  0.00     0.066 C 
ENDROOT
BRANCH   1   7
HETATM    7  C   UNL     1       4.857   7.450  20.868  0.00  0.00     0.172 A 
HETATM    8  N   UNL     1       4.183   6.829  19.818  0.00  0.00    -0.244 N 
HETATM    9  C   UNL     1       5.050   6.972  18.730  0.00  0.00     0.349 A 
HETATM   10  O   UNL     1       5.023   6.494  17.608  0.00  0.00    -0.245 OA
HETATM   11  N   UNL     1       6.104   7.741  19.175  0.00  0.00    -0.226 N 
HETATM   12  H   UNL     1       6.947   7.914  18.641  0.00  0.00     0.194 HD
HETATM   13  N   UNL     1       5.992   8.002  20.486  0.00  0.00    -0.151 NA
BRANCH   8  14
HETATM   14  C   UNL     1       2.933   6.141  19.669  0.00  0.00     0.051 C 
HETATM   15  C   UNL     1       2.547   4.981  20.354  0.00  0.00    -0.035 C 
HETATM   16  C   UNL     1       3.531   3.926  20.782  0.00  0.00     0.050 C 
HETATM   17  C   UNL     1       1.190   4.587  20.387  0.00  0.00     0.009 C 
HETATM   18  C   UNL     1       0.267   5.129  19.501  0.00  0.00     0.001 C 
HETATM   19  C   UNL     1       0.694   6.089  18.604  0.00  0.00     0.002 C 
HETATM   20  C   UNL     1       1.984   6.621  18.728  0.00  0.00     0.031 C 
ENDBRANCH   8  14
ENDBRANCH   1   7
BRANCH   2  21
HETATM   21  O   UNL     1       6.464   6.040  22.782  0.00  0.00    -0.360 OA
HETATM   22  H   UNL     1       7.247   6.359  23.282  0.00  0.00     0.217 HD
ENDBRANCH   2  21
BRANCH   6  23
HETATM   23  C   UNL     1       1.653   8.140  24.738  0.00  0.00     0.256 C 
HETATM   24  O   UNL     1       1.005   7.086  24.834  0.00  0.00    -0.267 OA
HETATM   25  N   UNL     1       0.976   9.364  24.860  0.00  0.00    -0.352 N 
HETATM   26  C   UNL     1       1.609  10.665  24.802  0.00  0.00     0.152 C 
BRANCH  25  27
HETATM   27  C   UNL     1      -0.498   9.360  24.763  0.00  0.00     0.125 C 
BRANCH  27  28
HETATM   28  C   UNL     1      -1.260  10.596  25.265  0.00  0.00     0.015 C 
HETATM   29  C   UNL     1      -2.450  11.026  24.422  0.00  0.00     0.006 C 
ENDBRANCH  27  28
ENDBRANCH  25  27
ENDBRANCH   6  23
BRANCH   4  30
HETATM   30  O   UNL     1       3.685   6.974  26.412  0.00  0.00    -0.360 OA
HETATM   31  H   UNL     1       3.019   7.613  26.721  0.00  0.00     0.217 HD
ENDBRANCH   4  30
TORSDOF 7
ENDMDL
MODEL 3
REMARK VINA RESULT:    -7.608      3.923      6.657
REMARK INTER + INTRA:         -11.861
REMARK INTER:                  -9.938
REMARK INTRA:                  -1.923
REMARK UNBOUND:                -1.585
REMARK  7 active torsions:
REMARK  status: ('A' for Active; 'I' for Inactive)
REMARK    1  A    between atoms: C_7  and  N_8 
REMARK    2  A    between atoms: C_14  and  C_15 
REMARK    3  A    between atoms: C_16  and  O_17 
REMARK    4  A    between atoms: C_19  and  O_20 
REMARK    5  A    between atoms: C_22  and  C_23 
REMARK       I    between atoms: C_23  and  N_25 
REMARK    6  A    between atoms: N_25  and  C_27 
REMARK    7  A    between atoms: C_27  and  C_28 
ROOT
HETATM    1  C   UNL     1       3.642   6.859  18.189  0.00  0.00     0.046 C 
HETATM    2  C   UNL     1       2.797   7.995  18.220  0.00  0.00     0.082 C 
HETATM    3  C   UNL     1       1.527   7.990  17.654  0.00  0.00     0.075 C 
HETATM    4  C   UNL     1       1.034   6.822  17.087  0.00  0.00     0.084 C 
HETATM    5  C   UNL     1       3.186   5.743  17.458  0.00  0.00     0.038 C 
HETATM    6  C   UNL     1       1.827   5.658  17.014  0.00  0.00     0.066 C 
ENDROOT
BRANCH   1   7
HETATM    7  C   UNL     1       4.904   6.941  19.011  0.00  0.00     0.172 A 
HETATM    8  N   UNL     1       5.286   6.319  20.198  0.00  0.00    -0.244 N 
HETATM    9  C   UNL     1       6.501   6.931  20.523  0.00  0.00     0.349 A 
HETATM   10  O   UNL     1       7.194   6.869  21.524  0.00  0.00    -0.245 OA
HETATM   11  N   UNL     1       6.799   7.776  19.475  0.00  0.00    -0.226 N 
HETATM   12  H   UNL     1       7.563   8.442  19.481  0.00  0.00     0.194 HD
HETATM   13  N   UNL     1       5.807   7.798  18.574  0.00  0.00    -0.151 NA
BRANCH   8  14
HETATM   14  C   UNL     1       4.727   5.310  21.051  0.00  0.00     0.051 C 
HETATM   15  C   UNL     1       4.855   3.926  20.878  0.00  0.00    -0.035 C 
HETATM   16  C   UNL     1       4.961   3.284  19.521  0.00  0.00     0.050 C 
HETATM   17  C   UNL     1       4.560   3.041  21.941  0.00  0.00     0.009 C 
HETATM   18  C   UNL     1       3.846   3.471  23.051  0.00  0.00     0.001 C 
HETATM   19  C   UNL     1       3.452   4.794  23.115  0.00  0.00     0.002 C 
HETATM   20  C   UNL     1       3.934   5.701  22.162  0.00  0.00     0.031 C 
ENDBRANCH   8  14
ENDBRANCH   1   7
BRANCH   2  21
HETATM   21  O   UNL     1       3.123   9.184  18.831  0.00  0.00    -0.360 OA
HETATM   22  H   UNL     1       3.077   9.051  19.802  0.00  0.00     0.217 HD
ENDBRANCH   2  21
BRANCH   6  23
HETATM   23  C   UNL     1       1.087   4.318  16.943  0.00  0.00     0.256 C 
HETATM   24  O   UNL     1       0.744   3.927  15.817  0.00  0.00    -0.267 OA
HETATM   25  N   UNL     1       0.628   3.620  18.071  0.00  0.00    -0.352 N 
HETATM   26  C   UNL     1       0.975   3.945  19.439  0.00  0.00     0.152 C 
BRANCH  25  27
HETATM   27  C   UNL     1      -0.492   2.672  17.898  0.00  0.00     0.125 C 
BRANCH  27  28
HETATM   28  C   UNL     1      -1.756   2.881  18.746  0.00  0.00     0.015 C 
HETATM   29  C   UNL     1      -2.243   1.666  19.519  0.00  0.00     0.006 C 
ENDBRANCH  27  28
ENDBRANCH  25  27
ENDBRANCH   6  23
BRANCH   4  30
HETATM   30  O   UNL     1      -0.252   6.845  16.614  0.00  0.00    -0.360 OA
HETATM   31  H   UNL     1      -0.256   7.220  15.717  0.00  0.00     0.217 HD
ENDBRANCH   4  30
TORSDOF 7
ENDMDL
MODEL 4
REMARK VINA RESULT:    -7.417      1.894      6.742
REMARK INTER + INTRA:         -11.603
REMARK INTER:                 -10.069
REMARK INTRA:                  -1.534
REMARK UNBOUND:                -1.585
REMARK  7 active torsions:
REMARK  status: ('A' for Active; 'I' for Inactive)
REMARK    1  A    between atoms: C_7  and  N_8 
REMARK    2  A    between atoms: C_14  and  C_15 
REMARK    3  A    between atoms: C_16  and  O_17 
REMARK    4  A    between atoms: C_19  and  O_20 
REMARK    5  A    between atoms: C_22  and  C_23 
REMARK       I    between atoms: C_23  and  N_25 
REMARK    6  A    between atoms: N_25  and  C_27 
REMARK    7  A    between atoms: C_27  and  C_28 
ROOT
HETATM    1  C   UNL     1       3.279   7.011  24.536  0.00  0.00     0.046 C 
HETATM    2  C   UNL     1       4.580   6.580  24.894  0.00  0.00     0.082 C 
HETATM    3  C   UNL     1       5.578   6.370  23.949  0.00  0.00     0.075 C 
HETATM    4  C   UNL     1       5.325   6.643  22.611  0.00  0.00     0.084 C 
HETATM    5  C   UNL     1       2.997   7.114  23.157  0.00  0.00     0.038 C 
HETATM    6  C   UNL     1       4.048   7.064  22.184  0.00  0.00     0.066 C 
ENDROOT
BRANCH   1   7
HETATM    7  C   UNL     1       2.362   7.389  25.671  0.00  0.00     0.172 A 
HETATM    8  N   UNL     1       1.663   8.561  25.956  0.00  0.00    -0.244 N 
HETATM    9  C   UNL     1       1.126   8.332  27.226  0.00  0.00     0.349 A 
HETATM   10  O   UNL     1       0.551   9.074  28.005  0.00  0.00    -0.245 OA
HETATM   11  N   UNL     1       1.447   7.032  27.553  0.00  0.00    -0.226 N 
HETATM   12  H   UNL     1       1.291   6.620  28.464  0.00  0.00     0.194 HD
HETATM   13  N   UNL     1       2.225   6.475  26.613  0.00  0.00    -0.151 NA
BRANCH   8  14
HETATM   14  C   UNL     1       1.438   9.807  25.281  0.00  0.00     0.051 C 
HETATM   15  C   UNL     1       0.187  10.370  24.994  0.00  0.00    -0.035 C 
HETATM   16  C   UNL     1      -1.031   9.536  24.704  0.00  0.00     0.050 C 
HETATM   17  C   UNL     1       0.081  11.735  24.638  0.00  0.00     0.009 C 
HETATM   18  C   UNL     1       1.200  12.461  24.254  0.00  0.00     0.001 C 
HETATM   19  C   UNL     1       2.432  11.834  24.255  0.00  0.00     0.002 C 
HETATM   20  C   UNL     1       2.550  10.554  24.812  0.00  0.00     0.031 C 
ENDBRANCH   8  14
ENDBRANCH   1   7
BRANCH   2  21
HETATM   21  O   UNL     1       4.993   6.365  26.189  0.00  0.00    -0.360 OA
HETATM   22  H   UNL     1       5.171   7.237  26.601  0.00  0.00     0.217 HD
ENDBRANCH   2  21
BRANCH   6  23
HETATM   23  C   UNL     1       3.984   7.882  20.891  0.00  0.00     0.256 C 
HETATM   24  O   UNL     1       4.031   9.117  21.007  0.00  0.00    -0.267 OA
HETATM   25  N   UNL     1       3.698   7.330  19.632  0.00  0.00    -0.352 N 
HETATM   26  C   UNL     1       3.645   5.912  19.347  0.00  0.00     0.152 C 
BRANCH  25  27
HETATM   27  C   UNL     1       3.144   8.219  18.590  0.00  0.00     0.125 C 
BRANCH  27  28
HETATM   28  C   UNL     1       1.782   7.856  17.977  0.00  0.00     0.015 C 
HETATM   29  C   UNL     1       1.780   7.592  16.480  0.00  0.00     0.006 C 
ENDBRANCH  27  28
ENDBRANCH  25  27
ENDBRANCH   6  23
BRANCH   4  30
HETATM   30  O   UNL     1       6.363   6.496  21.730  0.00  0.00    -0.360 OA
HETATM   31  H   UNL     1       6.758   7.367  21.553  0.00  0.00     0.217 HD
ENDBRANCH   4  30
TORSDOF 7
ENDMDL
MODEL 5
REMARK VINA RESULT:    -7.213      4.594      6.979
REMARK INTER + INTRA:         -11.328
REMARK INTER:                  -9.660
REMARK INTRA:                  -1.667
REMARK UNBOUND:                -1.585
REMARK  7 active torsions:
REMARK  status: ('A' for Active; 'I' for Inactive)
REMARK    1  A    between atoms: C_7  and  N_8 
REMARK    2  A    between atoms: C_14  and  C_15 
REMARK    3  A    between atoms: C_16  and  O_17 
REMARK    4  A    between atoms: C_19  and  O_20 
REMARK    5  A    between atoms: C_22  and  C_23 
REMARK       I    between atoms: C_23  and  N_25 
REMARK    6  A    between atoms: N_25  and  C_27 
REMARK    7  A    between atoms: C_27  and  C_28 
ROOT
HETATM    1  C   UNL     1       0.097   8.354  27.314  0.00  0.00     0.046 C 
HETATM    2  C   UNL     1      -0.138   8.820  28.631  0.00  0.00     0.082 C 
HETATM    3  C   UNL     1      -0.631  10.094  28.890  0.00  0.00     0.075 C 
HETATM    4  C   UNL     1      -0.963  10.929  27.831  0.00  0.00     0.084 C 
HETATM    5  C   UNL     1      -0.084   9.281  26.267  0.00  0.00     0.038 C 
HETATM    6  C   UNL     1      -0.744  10.532  26.495  0.00  0.00     0.066 C 
ENDROOT
BRANCH   1   7
HETATM    7  C   UNL     1       0.439   6.892  27.172  0.00  0.00     0.172 A 
HETATM    8  N   UNL     1       1.438   6.233  26.458  0.00  0.00    -0.244 N 
HETATM    9  C   UNL     1       1.124   4.880  26.610  0.00  0.00     0.349 A 
HETATM   10  O   UNL     1       1.580   3.880  26.081  0.00  0.00    -0.245 OA
HETATM   11  N   UNL     1       0.048   4.828  27.472  0.00  0.00    -0.226 N 
HETATM   12  H   UNL     1      -0.474   3.986  27.678  0.00  0.00     0.194 HD
HETATM   13  N   UNL     1      -0.380   6.059  27.785  0.00  0.00    -0.151 NA
BRANCH   8  14
HETATM   14  C   UNL     1       2.574   6.636  25.678  0.00  0.00     0.051 C 
HETATM   15  C   UNL     1       3.914   6.557  26.080  0.00  0.00    -0.035 C 
HETATM   16  C   UNL     1       4.342   6.713  27.514  0.00  0.00     0.050 C 
HETATM   17  C   UNL     1       4.954   6.658  25.127  0.00  0.00     0.009 C 
HETATM   18  C   UNL     1       4.708   7.149  23.851  0.00  0.00     0.001 C 
HETATM   19  C   UNL     1       3.417   7.510  23.516  0.00  0.00     0.002 C 
HETATM   20  C   UNL     1       2.369   7.203  24.393  0.00  0.00     0.031 C 
ENDBRANCH   8  14
ENDBRANCH   1   7
BRANCH   2  21
HETATM   21  O   UNL     1       0.057   8.064  29.764  0.00  0.00    -0.360 OA
HETATM   22  H   UNL     1      -0.468   8.463  30.491  0.00  0.00     0.217 HD
ENDBRANCH   2  21
BRANCH   6  23
HETATM   23  C   UNL     1      -1.625  11.183  25.425  0.00  0.00     0.256 C 
HETATM   24  O   UNL     1      -2.835  10.913  25.456  0.00  0.00    -0.267 OA
HETATM   25  N   UNL     1      -1.120  11.903  24.330  0.00  0.00    -0.352 N 
HETATM   26  C   UNL     1       0.261  12.314  24.180  0.00  0.00     0.152 C 
BRANCH  25  27
HETATM   27  C   UNL     1      -1.961  12.018  23.121  0.00  0.00     0.125 C 
BRANCH  27  28
HETATM   28  C   UNL     1      -1.362  12.706  21.885  0.00  0.00     0.015 C 
HETATM   29  C   UNL     1      -2.359  13.129  20.817  0.00  0.00     0.006 C 
ENDBRANCH  27  28
ENDBRANCH  25  27
ENDBRANCH   6  23
BRANCH   4  30
HETATM   30  O   UNL     1      -1.518  12.144  28.136  0.00  0.00    -0.360 OA
HETATM   31  H   UNL     1      -2.462  12.023  28.337  0.00  0.00     0.217 HD
ENDBRANCH   4  30
TORSDOF 7
ENDMDL
MODEL 6
REMARK VINA RESULT:    -7.087      2.421      7.385
REMARK INTER + INTRA:         -11.158
REMARK INTER:                  -9.938
REMARK INTRA:                  -1.221
REMARK UNBOUND:                -1.585
REMARK  7 active torsions:
REMARK  status: ('A' for Active; 'I' for Inactive)
REMARK    1  A    between atoms: C_7  and  N_8 
REMARK    2  A    between atoms: C_14  and  C_15 
REMARK    3  A    between atoms: C_16  and  O_17 
REMARK    4  A    between atoms: C_19  and  O_20 
REMARK    5  A    between atoms: C_22  and  C_23 
REMARK       I    between atoms: C_23  and  N_25 
REMARK    6  A    between atoms: N_25  and  C_27 
REMARK    7  A    between atoms: C_27  and  C_28 
ROOT
HETATM    1  C   UNL     1       1.694   7.966  25.836  0.00  0.00     0.046 C 
HETATM    2  C   UNL     1       2.712   7.486  26.696  0.00  0.00     0.082 C 
HETATM    3  C   UNL     1       3.945   7.057  26.219  0.00  0.00     0.075 C 
HETATM    4  C   UNL     1       4.225   7.149  24.861  0.00  0.00     0.084 C 
HETATM    5  C   UNL     1       1.940   7.887  24.449  0.00  0.00     0.038 C 
HETATM    6  C   UNL     1       3.253   7.607  23.948  0.00  0.00     0.066 C 
ENDROOT
BRANCH   1   7
HETATM    7  C   UNL     1       0.490   8.583  26.502  0.00  0.00     0.172 A 
HETATM    8  N   UNL     1      -0.163   9.798  26.307  0.00  0.00    -0.244 N 
HETATM    9  C   UNL     1      -1.105   9.843  27.340  0.00  0.00     0.349 A 
HETATM   10  O   UNL     1      -1.840  10.738  27.723  0.00  0.00    -0.245 OA
HETATM   11  N   UNL     1      -1.018   8.633  27.994  0.00  0.00    -0.226 N 
HETATM   12  H   UNL     1      -1.498   8.420  28.860  0.00  0.00     0.194 HD
HETATM   13  N   UNL     1      -0.024   7.884  27.496  0.00  0.00    -0.151 NA
BRANCH   8  14
HETATM   14  C   UNL     1      -0.051  10.883  25.374  0.00  0.00     0.051 C 
HETATM   15  C   UNL     1      -1.113  11.495  24.695  0.00  0.00    -0.035 C 
HETATM   16  C   UNL     1      -2.353  10.748  24.287  0.00  0.00     0.050 C 
HETATM   17  C   UNL     1      -0.934  12.752  24.072  0.00  0.00     0.009 C 
HETATM   18  C   UNL     1       0.337  13.257  23.835  0.00  0.00     0.001 C 
HETATM   19  C   UNL     1       1.432  12.521  24.248  0.00  0.00     0.002 C 
HETATM   20  C   UNL     1       1.235  11.390  25.050  0.00  0.00     0.031 C 
ENDBRANCH   8  14
ENDBRANCH   1   7
BRANCH   2  21
HETATM   21  O   UNL     1       2.602   7.431  28.066  0.00  0.00    -0.360 OA
HETATM   22  H   UNL     1       3.117   6.657  28.383  0.00  0.00     0.217 HD
ENDBRANCH   2  21
BRANCH   6  23
HETATM   23  C   UNL     1       3.764   8.228  22.644  0.00  0.00     0.256 C 
HETATM   24  O   UNL     1       3.867   9.464  22.615  0.00  0.00    -0.267 OA
HETATM   25  N   UNL     1       3.941   7.505  21.453  0.00  0.00    -0.352 N 
HETATM   26  C   UNL     1       3.882   6.063  21.348  0.00  0.00     0.152 C 
BRANCH  25  27
HETATM   27  C   UNL     1       3.911   8.247  20.176  0.00  0.00     0.125 C 
BRANCH  27  28
HETATM   28  C   UNL     1       5.025   7.973  19.153  0.00  0.00     0.015 C 
HETATM   29  C   UNL     1       6.428   8.374  19.582  0.00  0.00     0.006 C 
ENDBRANCH  27  28
ENDBRANCH  25  27
ENDBRANCH   6  23
BRANCH   4  30
HETATM   30  O   UNL     1       5.481   6.787  24.451  0.00  0.00    -0.360 OA
HETATM   31  H   UNL     1       5.532   5.818  24.394  0.00  0.00     0.217 HD
ENDBRANCH   4  30
TORSDOF 7
ENDMDL
MODEL 7
REMARK VINA RESULT:    -7.076      2.336      3.305
REMARK INTER + INTRA:         -11.142
REMARK INTER:                  -9.687
REMARK INTRA:                  -1.456
REMARK UNBOUND:                -1.585
REMARK  7 active torsions:
REMARK  status: ('A' for Active; 'I' for Inactive)
REMARK    1  A    between atoms: C_7  and  N_8 
REMARK    2  A    between atoms: C_14  and  C_15 
REMARK    3  A    between atoms: C_16  and  O_17 
REMARK    4  A    between atoms: C_19  and  O_20 
REMARK    5  A    between atoms: C_22  and  C_23 
REMARK       I    between atoms: C_23  and  N_25 
REMARK    6  A    between atoms: N_25  and  C_27 
REMARK    7  A    between atoms: C_27  and  C_28 
ROOT
HETATM    1  C   UNL     1       3.797   7.626  22.110  0.00  0.00     0.046 C 
HETATM    2  C   UNL     1       3.931   8.956  22.579  0.00  0.00     0.082 C 
HETATM    3  C   UNL     1       3.578   9.326  23.872  0.00  0.00     0.075 C 
HETATM    4  C   UNL     1       3.131   8.359  24.763  0.00  0.00     0.084 C 
HETATM    5  C   UNL     1       3.179   6.702  22.978  0.00  0.00     0.038 C 
HETATM    6  C   UNL     1       2.963   7.019  24.359  0.00  0.00     0.066 C 
ENDROOT
BRANCH   1   7
HETATM    7  C   UNL     1       4.401   7.328  20.761  0.00  0.00     0.172 A 
HETATM    8  N   UNL     1       3.839   6.887  19.564  0.00  0.00    -0.244 N 
HETATM    9  C   UNL     1       4.944   6.653  18.740  0.00  0.00     0.349 A 
HETATM   10  O   UNL     1       5.037   6.128  17.643  0.00  0.00    -0.245 OA
HETATM   11  N   UNL     1       6.051   7.063  19.453  0.00  0.00    -0.226 N 
HETATM   12  H   UNL     1       7.007   6.906  19.158  0.00  0.00     0.194 HD
HETATM   13  N   UNL     1       5.713   7.444  20.693  0.00  0.00    -0.151 NA
BRANCH   8  14
HETATM   14  C   UNL     1       2.508   6.642  19.087  0.00  0.00     0.051 C 
HETATM   15  C   UNL     1       1.831   7.396  18.120  0.00  0.00    -0.035 C 
HETATM   16  C   UNL     1       2.049   8.874  17.945  0.00  0.00     0.050 C 
HETATM   17  C   UNL     1       0.677   6.878  17.487  0.00  0.00     0.009 C 
HETATM   18  C   UNL     1       0.005   5.783  18.013  0.00  0.00     0.001 C 
HETATM   19  C   UNL     1       0.504   5.184  19.155  0.00  0.00     0.002 C 
HETATM   20  C   UNL     1       1.758   5.571  19.642  0.00  0.00     0.031 C 
ENDBRANCH   8  14
ENDBRANCH   1   7
BRANCH   2  21
HETATM   21  O   UNL     1       4.448   9.990  21.832  0.00  0.00    -0.360 OA
HETATM   22  H   UNL     1       5.256  10.318  22.283  0.00  0.00     0.217 HD
ENDBRANCH   2  21
BRANCH   6  23
HETATM   23  C   UNL     1       3.050   5.949  25.451  0.00  0.00     0.256 C 
HETATM   24  O   UNL     1       4.118   5.324  25.540  0.00  0.00    -0.267 OA
HETATM   25  N   UNL     1       1.951   5.523  26.215  0.00  0.00    -0.352 N 
HETATM   26  C   UNL     1       0.659   6.176  26.235  0.00  0.00     0.152 C 
BRANCH  25  27
HETATM   27  C   UNL     1       2.004   4.179  26.826  0.00  0.00     0.125 C 
BRANCH  27  28
HETATM   28  C   UNL     1       0.739   3.648  27.518  0.00  0.00     0.015 C 
HETATM   29  C   UNL     1       0.007   2.531  26.791  0.00  0.00     0.006 C 
ENDBRANCH  27  28
ENDBRANCH  25  27
ENDBRANCH   6  23
BRANCH   4  30
HETATM   30  O   UNL     1       2.871   8.759  26.047  0.00  0.00    -0.360 OA
HETATM   31  H   UNL     1       3.525   8.359  26.646  0.00  0.00     0.217 HD
ENDBRANCH   4  30
TORSDOF 7
ENDMDL
MODEL 8
REMARK VINA RESULT:    -7.049      2.150      2.793
REMARK INTER + INTRA:         -11.106
REMARK INTER:                  -9.521
REMARK INTRA:                  -1.585
REMARK UNBOUND:                -1.585
REMARK  7 active torsions:
REMARK  status: ('A' for Active; 'I' for Inactive)
REMARK    1  A    between atoms: C_7  and  N_8 
REMARK    2  A    between atoms: C_14  and  C_15 
REMARK    3  A    between atoms: C_16  and  O_17 
REMARK    4  A    between atoms: C_19  and  O_20 
REMARK    5  A    between atoms: C_22  and  C_23 
REMARK       I    between atoms: C_23  and  N_25 
REMARK    6  A    between atoms: N_25  and  C_27 
REMARK    7  A    between atoms: C_27  and  C_28 
ROOT
HETATM    1  C   UNL     1       3.758   7.395  22.141  0.00  0.00     0.046 C 
HETATM    2  C   UNL     1       4.253   8.722  22.127  0.00  0.00     0.082 C 
HETATM    3  C   UNL     1       3.995   9.621  23.156  0.00  0.00     0.075 C 
HETATM    4  C   UNL     1       3.278   9.201  24.269  0.00  0.00     0.084 C 
HETATM    5  C   UNL     1       2.890   7.048  23.197  0.00  0.00     0.038 C 
HETATM    6  C   UNL     1       2.746   7.897  24.343  0.00  0.00     0.066 C 
ENDROOT
BRANCH   1   7
HETATM    7  C   UNL     1       4.278   6.475  21.065  0.00  0.00     0.172 A 
HETATM    8  N   UNL     1       3.681   5.945  19.923  0.00  0.00    -0.244 N 
HETATM    9  C   UNL     1       4.633   5.045  19.433  0.00  0.00     0.349 A 
HETATM   10  O   UNL     1       4.574   4.213  18.543  0.00  0.00    -0.245 OA
HETATM   11  N   UNL     1       5.743   5.181  20.240  0.00  0.00    -0.226 N 
HETATM   12  H   UNL     1       6.552   4.573  20.199  0.00  0.00     0.194 HD
HETATM   13  N   UNL     1       5.506   6.032  21.248  0.00  0.00    -0.151 NA
BRANCH   8  14
HETATM   14  C   UNL     1       2.424   6.115  19.252  0.00  0.00     0.051 C 
HETATM   15  C   UNL     1       2.112   7.130  18.337  0.00  0.00    -0.035 C 
HETATM   16  C   UNL     1       2.705   8.509  18.423  0.00  0.00     0.050 C 
HETATM   17  C   UNL     1       0.984   7.010  17.493  0.00  0.00     0.009 C 
HETATM   18  C   UNL     1      -0.008   6.074  17.755  0.00  0.00     0.001 C 
HETATM   19  C   UNL     1       0.142   5.235  18.842  0.00  0.00     0.002 C 
HETATM   20  C   UNL     1       1.358   5.220  19.536  0.00  0.00     0.031 C 
ENDBRANCH   8  14
ENDBRANCH   1   7
BRANCH   2  21
HETATM   21  O   UNL     1       5.053   9.237  21.134  0.00  0.00    -0.360 OA
HETATM   22  H   UNL     1       4.964   8.665  20.342  0.00  0.00     0.217 HD
ENDBRANCH   2  21
BRANCH   6  23
HETATM   23  C   UNL     1       2.509   7.323  25.743  0.00  0.00     0.256 C 
HETATM   24  O   UNL     1       3.434   6.665  26.243  0.00  0.00    -0.267 OA
HETATM   25  N   UNL     1       1.265   7.345  26.394  0.00  0.00    -0.352 N 
HETATM   26  C   UNL     1       0.111   8.095  25.943  0.00  0.00     0.152 C 
BRANCH  25  27
HETATM   27  C   UNL     1       1.009   6.340  27.446  0.00  0.00     0.125 C 
BRANCH  27  28
HETATM   28  C   UNL     1      -0.451   5.972  27.756  0.00  0.00     0.015 C 
HETATM   29  C   UNL     1      -0.982   4.729  27.061  0.00  0.00     0.006 C 
ENDBRANCH  27  28
ENDBRANCH  25  27
ENDBRANCH   6  23
BRANCH   4  30
HETATM   30  O   UNL     1       3.118  10.099  25.291  0.00  0.00    -0.360 OA
HETATM   31  H   UNL     1       3.530  10.944  25.042  0.00  0.00     0.217 HD
ENDBRANCH   4  30
TORSDOF 7
ENDMDL
MODEL 9
REMARK VINA RESULT:    -7.045      2.417      3.617
REMARK INTER + INTRA:         -11.101
REMARK INTER:                  -9.384
REMARK INTRA:                  -1.717
REMARK UNBOUND:                -1.585
REMARK  7 active torsions:
REMARK  status: ('A' for Active; 'I' for Inactive)
REMARK    1  A    between atoms: C_7  and  N_8 
REMARK    2  A    between atoms: C_14  and  C_15 
REMARK    3  A    between atoms: C_16  and  O_17 
REMARK    4  A    between atoms: C_19  and  O_20 
REMARK    5  A    between atoms: C_22  and  C_23 
REMARK       I    between atoms: C_23  and  N_25 
REMARK    6  A    between atoms: N_25  and  C_27 
REMARK    7  A    between atoms: C_27  and  C_28 
ROOT
HETATM    1  C   UNL     1       3.774   7.549  22.056  0.00  0.00     0.046 C 
HETATM    2  C   UNL     1       3.895   8.847  22.610  0.00  0.00     0.082 C 
HETATM    3  C   UNL     1       3.530   9.131  23.921  0.00  0.00     0.075 C 
HETATM    4  C   UNL     1       3.084   8.106  24.746  0.00  0.00     0.084 C 
HETATM    5  C   UNL     1       3.158   6.567  22.859  0.00  0.00     0.038 C 
HETATM    6  C   UNL     1       2.930   6.793  24.256  0.00  0.00     0.066 C 
ENDROOT
BRANCH   1   7
HETATM    7  C   UNL     1       4.390   7.341  20.696  0.00  0.00     0.172 A 
HETATM    8  N   UNL     1       3.843   6.957  19.472  0.00  0.00    -0.244 N 
HETATM    9  C   UNL     1       4.956   6.795  18.642  0.00  0.00     0.349 A 
HETATM   10  O   UNL     1       5.064   6.336  17.517  0.00  0.00    -0.245 OA
HETATM   11  N   UNL     1       6.050   7.188  19.383  0.00  0.00    -0.226 N 
HETATM   12  H   UNL     1       7.010   7.071  19.083  0.00  0.00     0.194 HD
HETATM   13  N   UNL     1       5.699   7.490  20.641  0.00  0.00    -0.151 NA
BRANCH   8  14
HETATM   14  C   UNL     1       2.519   6.710  18.976  0.00  0.00     0.051 C 
HETATM   15  C   UNL     1       1.841   7.487  18.027  0.00  0.00    -0.035 C 
HETATM   16  C   UNL     1       2.040   8.972  17.901  0.00  0.00     0.050 C 
HETATM   17  C   UNL     1       0.699   6.974  17.368  0.00  0.00     0.009 C 
HETATM   18  C   UNL     1       0.037   5.854  17.852  0.00  0.00     0.001 C 
HETATM   19  C   UNL     1       0.533   5.225  18.979  0.00  0.00     0.002 C 
HETATM   20  C   UNL     1       1.778   5.614  19.490  0.00  0.00     0.031 C 
ENDBRANCH   8  14
ENDBRANCH   1   7
BRANCH   2  21
HETATM   21  O   UNL     1       4.409   9.930  21.935  0.00  0.00    -0.360 OA
HETATM   22  H   UNL     1       4.303   9.768  20.972  0.00  0.00     0.217 HD
ENDBRANCH   2  21
BRANCH   6  23
HETATM   23  C   UNL     1       3.017   5.656  25.278  0.00  0.00     0.256 C 
HETATM   24  O   UNL     1       1.988   5.402  25.922  0.00  0.00    -0.267 OA
HETATM   25  N   UNL     1       4.218   5.028  25.645  0.00  0.00    -0.352 N 
HETATM   26  C   UNL     1       5.483   5.205  24.964  0.00  0.00     0.152 C 
BRANCH  25  27
HETATM   27  C   UNL     1       4.283   4.361  26.962  0.00  0.00     0.125 C 
BRANCH  27  28
HETATM   28  C   UNL     1       4.951   5.113  28.123  0.00  0.00     0.015 C 
HETATM   29  C   UNL     1       4.320   6.445  28.497  0.00  0.00     0.006 C 
ENDBRANCH  27  28
ENDBRANCH  25  27
ENDBRANCH   6  23
BRANCH   4  30
HETATM   30  O   UNL     1       2.813   8.421  26.051  0.00  0.00    -0.360 OA
HETATM   31  H   UNL     1       1.863   8.294  26.220  0.00  0.00     0.217 HD
ENDBRANCH   4  30
TORSDOF 7
ENDMDL
