MODEL 1
REMARK VINA RESULT:    -5.875      0.000      0.000
REMARK INTER + INTRA:          -8.607
REMARK INTER:                  -7.623
REMARK INTRA:                  -0.984
REMARK UNBOUND:                -1.014
REMARK  5 active torsions:
REMARK  status: ('A' for Active; 'I' for Inactive)
REMARK    1  A    between atoms: N8_1  and  C24_2 
REMARK    2  A    between atoms: N8_1  and  C7_8 
REMARK    3  A    between atoms: C2_13  and  N1_14 
REMARK    4  A    between atoms: N1_14  and  C17_15 
REMARK    5  A    between atoms: C14_16  and  C13_19 
ROOT
ATOM      1  C17 FTA A   1       1.366  17.587  16.766  1.00  0.00     0.142 C 
ATOM      2  C14 FTA A   1       2.271  18.274  17.491  1.00  0.00     0.158 C 
ATOM      3  C18 FTA A   1       2.200  19.718  17.563  1.00  0.00     0.069 C 
ATOM      4  N21 FTA A   1       2.055  20.879  17.483  1.00  0.00    -0.197 NA
ENDROOT
BRANCH   2   5
ATOM      5  C13 FTA A   1       3.327  17.539  18.225  1.00  0.00     0.197 A 
ATOM      6  N15 FTA A   1       3.329  16.177  18.515  1.00  0.00    -0.093 NA
ATOM      7  N19 FTA A   1       4.475  15.909  19.254  1.00  0.00    -0.231 N 
ATOM      8  N20 FTA A   1       5.187  17.086  19.431  1.00  0.00    -0.017 NA
ATOM      9  H15 FTA A   1       4.752  14.984  19.613  1.00  0.00     0.200 HD
ATOM     10  N16 FTA A   1       4.482  18.096  18.785  1.00  0.00    -0.090 NA
ENDBRANCH   2   5
BRANCH   1  11
ATOM     11  N1  FTA A   1       1.803  16.709  15.843  1.00  0.00    -0.389 N 
ATOM     12  H11 FTA A   1       2.804  16.464  15.855  1.00  0.00     0.159 HD
BRANCH  11  13
ATOM     13  C2  FTA A   1       0.989  16.095  14.852  1.00  0.00     0.028 A 
ATOM     14  C4  FTA A   1       0.823  16.645  13.584  1.00  0.00     0.031 A 
ATOM     15  C6  FTA A   1      -0.166  16.122  12.740  1.00  0.00     0.031 A 
ATOM     16  C7  FTA A   1      -0.991  15.070  13.129  1.00  0.00     0.032 A 
ATOM     17  C5  FTA A   1      -0.797  14.518  14.383  1.00  0.00     0.031 A 
ATOM     18  C3  FTA A   1       0.169  15.031  15.240  1.00  0.00     0.031 A 
BRANCH  16  19
ATOM     19  N8  FTA A   1      -2.126  14.665  12.382  1.00  0.00    -0.356 N 
ATOM     20  H1  FTA A   1      -2.006  14.548  11.366  1.00  0.00     0.166 HD
BRANCH  19  21
ATOM     21  C24 FTA A   1      -3.422  14.406  12.923  1.00  0.00     0.032 A 
ATOM     22  C26 FTA A   1      -3.956  13.139  12.940  1.00  0.00     0.029 A 
ATOM     23  C28 FTA A   1      -5.276  12.982  13.316  1.00  0.00     0.002 A 
ATOM     24  C30 FTA A   1      -6.070  14.048  13.705  1.00  0.00     0.000 A 
ATOM     25  C29 FTA A   1      -5.539  15.310  13.729  1.00  0.00     0.002 A 
ATOM     26  C27 FTA A   1      -4.203  15.472  13.345  1.00  0.00     0.029 A 
ENDBRANCH  19  21
ENDBRANCH  16  19
ENDBRANCH  11  13
ENDBRANCH   1  11
TORSDOF 5
ENDMDL
MODEL 2
REMARK VINA RESULT:    -5.778      0.925      1.506
REMARK INTER + INTRA:          -8.482
REMARK INTER:                  -7.533
REMARK INTRA:                  -0.948
REMARK UNBOUND:                -1.014
REMARK  5 active torsions:
REMARK  status: ('A' for Active; 'I' for Inactive)
REMARK    1  A    between atoms: N8_1  and  C24_2 
REMARK    2  A    between atoms: N8_1  and  C7_8 
REMARK    3  A    between atoms: C2_13  and  N1_14 
REMARK    4  A    between atoms: N1_14  and  C17_15 
REMARK    5  A    between atoms: C14_16  and  C13_19 
ROOT
ATOM      1  C17 FTA A   1       1.249  18.000  16.827  1.00  0.00     0.142 C 
ATOM      2  C14 FTA A   1       2.364  18.520  17.379  1.00  0.00     0.158 C 
ATOM      3  C18 FTA A   1       2.624  19.941  17.292  1.00  0.00     0.069 C 
ATOM      4  N21 FTA A   1       2.731  21.092  17.095  1.00  0.00    -0.197 NA
ENDROOT
BRANCH   2   5
ATOM      5  C13 FTA A   1       3.311  17.628  18.087  1.00  0.00     0.197 A 
ATOM      6  N15 FTA A   1       3.213  16.242  18.190  1.00  0.00    -0.093 NA
ATOM      7  N19 FTA A   1       4.275  15.807  18.973  1.00  0.00    -0.231 N 
ATOM      8  N20 FTA A   1       5.033  16.901  19.363  1.00  0.00    -0.017 NA
ATOM      9  H15 FTA A   1       4.468  14.826  19.225  1.00  0.00     0.200 HD
ATOM     10  N16 FTA A   1       4.443  18.031  18.805  1.00  0.00    -0.090 NA
ENDBRANCH   2   5
BRANCH   1  11
ATOM     11  N1  FTA A   1       1.367  16.966  15.972  1.00  0.00    -0.389 N 
ATOM     12  H11 FTA A   1       2.314  16.597  15.800  1.00  0.00     0.159 HD
BRANCH  11  13
ATOM     13  C2  FTA A   1       0.286  16.346  15.290  1.00  0.00     0.028 A 
ATOM     14  C4  FTA A   1       0.322  15.007  14.906  1.00  0.00     0.031 A 
ATOM     15  C6  FTA A   1      -0.668  14.521  14.041  1.00  0.00     0.031 A 
ATOM     16  C7  FTA A   1      -1.686  15.334  13.550  1.00  0.00     0.032 A 
ATOM     17  C5  FTA A   1      -1.723  16.655  13.961  1.00  0.00     0.031 A 
ATOM     18  C3  FTA A   1      -0.743  17.160  14.807  1.00  0.00     0.031 A 
BRANCH  16  19
ATOM     19  N8  FTA A   1      -2.569  14.924  12.518  1.00  0.00    -0.356 N 
ATOM     20  H1  FTA A   1      -2.369  15.259  11.565  1.00  0.00     0.166 HD
BRANCH  19  21
ATOM     21  C24 FTA A   1      -3.711  14.085  12.693  1.00  0.00     0.032 A 
ATOM     22  C26 FTA A   1      -4.453  14.109  13.850  1.00  0.00     0.029 A 
ATOM     23  C28 FTA A   1      -5.437  13.155  14.025  1.00  0.00     0.002 A 
ATOM     24  C30 FTA A   1      -5.724  12.199  13.066  1.00  0.00     0.000 A 
ATOM     25  C29 FTA A   1      -5.019  12.189  11.893  1.00  0.00     0.002 A 
ATOM     26  C27 FTA A   1      -4.018  13.151  11.714  1.00  0.00     0.029 A 
ENDBRANCH  19  21
ENDBRANCH  16  19
ENDBRANCH  11  13
ENDBRANCH   1  11
TORSDOF 5
ENDMDL
MODEL 3
REMARK VINA RESULT:    -5.675      7.248     12.759
REMARK INTER + INTRA:          -8.349
REMARK INTER:                  -7.281
REMARK INTRA:                  -1.068
REMARK UNBOUND:                -1.014
REMARK  5 active torsions:
REMARK  status: ('A' for Active; 'I' for Inactive)
REMARK    1  A    between atoms: N8_1  and  C24_2 
REMARK    2  A    between atoms: N8_1  and  C7_8 
REMARK    3  A    between atoms: C2_13  and  N1_14 
REMARK    4  A    between atoms: N1_14  and  C17_15 
REMARK    5  A    between atoms: C14_16  and  C13_19 
ROOT
ATOM      1  C17 FTA A   1       7.629  17.473  17.901  1.00  0.00     0.142 C 
ATOM      2  C14 FTA A   1       6.536  17.071  17.223  1.00  0.00     0.158 C 
ATOM      3  C18 FTA A   1       6.666  16.520  15.892  1.00  0.00     0.069 C 
ATOM      4  N21 FTA A   1       6.916  16.150  14.808  1.00  0.00    -0.197 NA
ENDROOT
BRANCH   2   5
ATOM      5  C13 FTA A   1       5.203  17.184  17.860  1.00  0.00     0.197 A 
ATOM      6  N15 FTA A   1       4.537  18.368  18.168  1.00  0.00    -0.093 NA
ATOM      7  N19 FTA A   1       3.345  18.025  18.793  1.00  0.00    -0.231 N 
ATOM      8  N20 FTA A   1       3.258  16.644  18.883  1.00  0.00    -0.017 NA
ATOM      9  H15 FTA A   1       2.637  18.691  19.136  1.00  0.00     0.200 HD
ATOM     10  N16 FTA A   1       4.404  16.119  18.295  1.00  0.00    -0.090 NA
ENDBRANCH   2   5
BRANCH   1  11
ATOM     11  N1  FTA A   1       7.658  18.718  18.412  1.00  0.00    -0.389 N 
ATOM     12  H11 FTA A   1       7.463  19.501  17.771  1.00  0.00     0.159 HD
BRANCH  11  13
ATOM     13  C2  FTA A   1       7.935  19.036  19.770  1.00  0.00     0.028 A 
ATOM     14  C4  FTA A   1       7.130  18.587  20.815  1.00  0.00     0.031 A 
ATOM     15  C6  FTA A   1       7.321  19.121  22.097  1.00  0.00     0.031 A 
ATOM     16  C7  FTA A   1       8.288  20.088  22.360  1.00  0.00     0.032 A 
ATOM     17  C5  FTA A   1       9.095  20.505  21.316  1.00  0.00     0.031 A 
ATOM     18  C3  FTA A   1       8.913  19.998  20.036  1.00  0.00     0.031 A 
BRANCH  16  19
ATOM     19  N8  FTA A   1       8.359  20.790  23.590  1.00  0.00    -0.356 N 
ATOM     20  H1  FTA A   1       7.948  21.734  23.620  1.00  0.00     0.166 HD
BRANCH  19  21
ATOM     21  C24 FTA A   1       8.955  20.296  24.790  1.00  0.00     0.032 A 
ATOM     22  C26 FTA A   1       8.373  20.498  26.019  1.00  0.00     0.029 A 
ATOM     23  C28 FTA A   1       9.081  20.149  27.153  1.00  0.00     0.002 A 
ATOM     24  C30 FTA A   1      10.340  19.575  27.095  1.00  0.00     0.000 A 
ATOM     25  C29 FTA A   1      10.914  19.333  25.875  1.00  0.00     0.002 A 
ATOM     26  C27 FTA A   1      10.201  19.689  24.726  1.00  0.00     0.029 A 
ENDBRANCH  19  21
ENDBRANCH  16  19
ENDBRANCH  11  13
ENDBRANCH   1  11
TORSDOF 5
ENDMDL
MODEL 4
REMARK VINA RESULT:    -5.655      7.189     13.322
REMARK INTER + INTRA:          -8.323
REMARK INTER:                  -7.260
REMARK INTRA:                  -1.063
REMARK UNBOUND:                -1.014
REMARK  5 active torsions:
REMARK  status: ('A' for Active; 'I' for Inactive)
REMARK    1  A    between atoms: N8_1  and  C24_2 
REMARK    2  A    between atoms: N8_1  and  C7_8 
REMARK    3  A    between atoms: C2_13  and  N1_14 
REMARK    4  A    between atoms: N1_14  and  C17_15 
REMARK    5  A    between atoms: C14_16  and  C13_19 
ROOT
ATOM      1  C17 FTA A   1       5.671  18.661  19.355  1.00  0.00     0.142 C 
ATOM      2  C14 FTA A   1       6.119  18.152  18.190  1.00  0.00     0.158 C 
ATOM      3  C18 FTA A   1       5.191  17.870  17.116  1.00  0.00     0.069 C 
ATOM      4  N21 FTA A   1       4.324  17.639  16.361  1.00  0.00    -0.197 NA
ENDROOT
BRANCH   2   5
ATOM      5  C13 FTA A   1       7.567  17.898  18.014  1.00  0.00     0.197 A 
ATOM      6  N15 FTA A   1       8.139  16.780  17.412  1.00  0.00    -0.093 NA
ATOM      7  N19 FTA A   1       9.518  16.919  17.497  1.00  0.00    -0.231 N 
ATOM      8  N20 FTA A   1       9.817  18.108  18.146  1.00  0.00    -0.017 NA
ATOM      9  H15 FTA A   1      10.210  16.246  17.135  1.00  0.00     0.200 HD
ATOM     10  N16 FTA A   1       8.608  18.722  18.459  1.00  0.00    -0.090 NA
ENDBRANCH   2   5
BRANCH   1  11
ATOM     11  N1  FTA A   1       5.998  18.041  20.505  1.00  0.00    -0.389 N 
ATOM     12  H11 FTA A   1       5.797  17.033  20.576  1.00  0.00     0.159 HD
BRANCH  11  13
ATOM     13  C2  FTA A   1       6.600  18.671  21.629  1.00  0.00     0.028 A 
ATOM     14  C4  FTA A   1       5.953  19.669  22.353  1.00  0.00     0.031 A 
ATOM     15  C6  FTA A   1       6.682  20.406  23.296  1.00  0.00     0.031 A 
ATOM     16  C7  FTA A   1       8.035  20.173  23.532  1.00  0.00     0.032 A 
ATOM     17  C5  FTA A   1       8.657  19.161  22.822  1.00  0.00     0.031 A 
ATOM     18  C3  FTA A   1       7.955  18.429  21.873  1.00  0.00     0.031 A 
BRANCH  16  19
ATOM     19  N8  FTA A   1       8.838  21.036  24.321  1.00  0.00    -0.356 N 
ATOM     20  H1  FTA A   1       8.637  22.045  24.272  1.00  0.00     0.166 HD
BRANCH  19  21
ATOM     21  C24 FTA A   1       9.902  20.620  25.178  1.00  0.00     0.032 A 
ATOM     22  C26 FTA A   1      11.219  20.841  24.850  1.00  0.00     0.029 A 
ATOM     23  C28 FTA A   1      12.202  20.264  25.632  1.00  0.00     0.002 A 
ATOM     24  C30 FTA A   1      11.909  19.501  26.749  1.00  0.00     0.000 A 
ATOM     25  C29 FTA A   1      10.602  19.306  27.109  1.00  0.00     0.002 A 
ATOM     26  C27 FTA A   1       9.605  19.885  26.316  1.00  0.00     0.029 A 
ENDBRANCH  19  21
ENDBRANCH  16  19
ENDBRANCH  11  13
ENDBRANCH   1  11
TORSDOF 5
ENDMDL
MODEL 5
REMARK VINA RESULT:    -5.613      7.121     13.235
REMARK INTER + INTRA:          -8.268
REMARK INTER:                  -7.359
REMARK INTRA:                  -0.909
REMARK UNBOUND:                -1.014
REMARK  5 active torsions:
REMARK  status: ('A' for Active; 'I' for Inactive)
REMARK    1  A    between atoms: N8_1  and  C24_2 
REMARK    2  A    between atoms: N8_1  and  C7_8 
REMARK    3  A    between atoms: C2_13  and  N1_14 
REMARK    4  A    between atoms: N1_14  and  C17_15 
REMARK    5  A    between atoms: C14_16  and  C13_19 
ROOT
ATOM      1  C17 FTA A   1       5.860  18.241  18.970  1.00  0.00     0.142 C 
ATOM      2  C14 FTA A   1       5.434  17.189  18.243  1.00  0.00     0.158 C 
ATOM      3  C18 FTA A   1       4.487  16.251  18.807  1.00  0.00     0.069 C 
ATOM      4  N21 FTA A   1       3.769  15.546  19.409  1.00  0.00    -0.197 NA
ENDROOT
BRANCH   2   5
ATOM      5  C13 FTA A   1       5.930  17.011  16.859  1.00  0.00     0.197 A 
ATOM      6  N15 FTA A   1       7.165  16.481  16.490  1.00  0.00    -0.093 NA
ATOM      7  N19 FTA A   1       7.246  16.536  15.105  1.00  0.00    -0.231 N 
ATOM      8  N20 FTA A   1       6.081  17.097  14.603  1.00  0.00    -0.017 NA
ATOM      9  H15 FTA A   1       8.045  16.213  14.540  1.00  0.00     0.200 HD
ATOM     10  N16 FTA A   1       5.259  17.382  15.688  1.00  0.00    -0.090 NA
ENDBRANCH   2   5
BRANCH   1  11
ATOM     11  N1  FTA A   1       7.185  18.442  19.110  1.00  0.00    -0.389 N 
ATOM     12  H11 FTA A   1       7.784  18.250  18.294  1.00  0.00     0.159 HD
BRANCH  11  13
ATOM     13  C2  FTA A   1       7.819  18.898  20.297  1.00  0.00     0.028 A 
ATOM     14  C4  FTA A   1       7.446  18.442  21.559  1.00  0.00     0.031 A 
ATOM     15  C6  FTA A   1       7.946  19.096  22.694  1.00  0.00     0.031 A 
ATOM     16  C7  FTA A   1       8.802  20.190  22.600  1.00  0.00     0.032 A 
ATOM     17  C5  FTA A   1       9.183  20.615  21.340  1.00  0.00     0.031 A 
ATOM     18  C3  FTA A   1       8.688  19.989  20.203  1.00  0.00     0.031 A 
BRANCH  16  19
ATOM     19  N8  FTA A   1       9.150  20.992  23.717  1.00  0.00    -0.356 N 
ATOM     20  H1  FTA A   1       8.726  21.929  23.776  1.00  0.00     0.166 HD
BRANCH  19  21
ATOM     21  C24 FTA A   1      10.040  20.607  24.765  1.00  0.00     0.032 A 
ATOM     22  C26 FTA A   1      11.403  20.727  24.633  1.00  0.00     0.029 A 
ATOM     23  C28 FTA A   1      12.213  20.179  25.610  1.00  0.00     0.002 A 
ATOM     24  C30 FTA A   1      11.703  19.544  26.729  1.00  0.00     0.000 A 
ATOM     25  C29 FTA A   1      10.346  19.452  26.891  1.00  0.00     0.002 A 
ATOM     26  C27 FTA A   1       9.523  20.002  25.902  1.00  0.00     0.029 A 
ENDBRANCH  19  21
ENDBRANCH  16  19
ENDBRANCH  11  13
ENDBRANCH   1  11
TORSDOF 5
ENDMDL
MODEL 6
REMARK VINA RESULT:    -5.506      4.414      6.603
REMARK INTER + INTRA:          -8.130
REMARK INTER:                  -6.921
REMARK INTRA:                  -1.210
REMARK UNBOUND:                -1.014
REMARK  5 active torsions:
REMARK  status: ('A' for Active; 'I' for Inactive)
REMARK    1  A    between atoms: N8_1  and  C24_2 
REMARK    2  A    between atoms: N8_1  and  C7_8 
REMARK    3  A    between atoms: C2_13  and  N1_14 
REMARK    4  A    between atoms: N1_14  and  C17_15 
REMARK    5  A    between atoms: C14_16  and  C13_19 
ROOT
ATOM      1  C17 FTA A   1       7.410  18.679  18.814  1.00  0.00     0.142 C 
ATOM      2  C14 FTA A   1       6.442  18.396  19.709  1.00  0.00     0.158 C 
ATOM      3  C18 FTA A   1       6.692  18.559  21.125  1.00  0.00     0.069 C 
ATOM      4  N21 FTA A   1       7.052  18.681  22.234  1.00  0.00    -0.197 NA
ENDROOT
BRANCH   2   5
ATOM      5  C13 FTA A   1       5.120  17.933  19.230  1.00  0.00     0.197 A 
ATOM      6  N15 FTA A   1       4.014  18.737  18.964  1.00  0.00    -0.093 NA
ATOM      7  N19 FTA A   1       2.972  17.901  18.584  1.00  0.00    -0.231 N 
ATOM      8  N20 FTA A   1       3.410  16.585  18.611  1.00  0.00    -0.017 NA
ATOM      9  H15 FTA A   1       2.024  18.209  18.323  1.00  0.00     0.200 HD
ATOM     10  N16 FTA A   1       4.745  16.603  19.001  1.00  0.00    -0.090 NA
ENDBRANCH   2   5
BRANCH   1  11
ATOM     11  N1  FTA A   1       7.743  17.748  17.899  1.00  0.00    -0.389 N 
ATOM     12  H11 FTA A   1       8.322  16.956  18.214  1.00  0.00     0.159 HD
BRANCH  11  13
ATOM     13  C2  FTA A   1       7.357  17.775  16.531  1.00  0.00     0.028 A 
ATOM     14  C4  FTA A   1       6.943  18.946  15.900  1.00  0.00     0.031 A 
ATOM     15  C6  FTA A   1       6.360  18.864  14.629  1.00  0.00     0.031 A 
ATOM     16  C7  FTA A   1       6.178  17.648  13.975  1.00  0.00     0.032 A 
ATOM     17  C5  FTA A   1       6.616  16.496  14.604  1.00  0.00     0.031 A 
ATOM     18  C3  FTA A   1       7.185  16.555  15.871  1.00  0.00     0.031 A 
BRANCH  16  19
ATOM     19  N8  FTA A   1       5.407  17.518  12.792  1.00  0.00    -0.356 N 
ATOM     20  H1  FTA A   1       5.785  17.943  11.933  1.00  0.00     0.166 HD
BRANCH  19  21
ATOM     21  C24 FTA A   1       4.151  16.847  12.692  1.00  0.00     0.032 A 
ATOM     22  C26 FTA A   1       3.052  17.265  13.406  1.00  0.00     0.029 A 
ATOM     23  C28 FTA A   1       1.919  16.475  13.401  1.00  0.00     0.002 A 
ATOM     24  C30 FTA A   1       1.838  15.296  12.679  1.00  0.00     0.000 A 
ATOM     25  C29 FTA A   1       2.912  14.889  11.933  1.00  0.00     0.002 A 
ATOM     26  C27 FTA A   1       4.063  15.685  11.940  1.00  0.00     0.029 A 
ENDBRANCH  19  21
ENDBRANCH  16  19
ENDBRANCH  11  13
ENDBRANCH   1  11
TORSDOF 5
ENDMDL
MODEL 7
REMARK VINA RESULT:    -5.499      3.065      5.278
REMARK INTER + INTRA:          -8.121
REMARK INTER:                  -7.115
REMARK INTRA:                  -1.006
REMARK UNBOUND:                -1.014
REMARK  5 active torsions:
REMARK  status: ('A' for Active; 'I' for Inactive)
REMARK    1  A    between atoms: N8_1  and  C24_2 
REMARK    2  A    between atoms: N8_1  and  C7_8 
REMARK    3  A    between atoms: C2_13  and  N1_14 
REMARK    4  A    between atoms: N1_14  and  C17_15 
REMARK    5  A    between atoms: C14_16  and  C13_19 
ROOT
ATOM      1  C17 FTA A   1       7.100  18.696  17.682  1.00  0.00     0.142 C 
ATOM      2  C14 FTA A   1       7.924  18.889  18.731  1.00  0.00     0.158 C 
ATOM      3  C18 FTA A   1       9.286  19.330  18.515  1.00  0.00     0.069 C 
ATOM      4  N21 FTA A   1      10.371  19.631  18.187  1.00  0.00    -0.197 NA
ENDROOT
BRANCH   2   5
ATOM      5  C13 FTA A   1       7.421  18.660  20.105  1.00  0.00     0.197 A 
ATOM      6  N15 FTA A   1       6.104  18.379  20.462  1.00  0.00    -0.093 NA
ATOM      7  N19 FTA A   1       6.058  18.283  21.846  1.00  0.00    -0.231 N 
ATOM      8  N20 FTA A   1       7.327  18.503  22.360  1.00  0.00    -0.017 NA
ATOM      9  H15 FTA A   1       5.215  18.081  22.403  1.00  0.00     0.200 HD
ATOM     10  N16 FTA A   1       8.176  18.726  21.281  1.00  0.00    -0.090 NA
ENDBRANCH   2   5
BRANCH   1  11
ATOM     11  N1  FTA A   1       6.461  17.516  17.564  1.00  0.00    -0.389 N 
ATOM     12  H11 FTA A   1       6.966  16.670  17.864  1.00  0.00     0.159 HD
BRANCH  11  13
ATOM     13  C2  FTA A   1       5.144  17.350  17.056  1.00  0.00     0.028 A 
ATOM     14  C4  FTA A   1       4.786  17.759  15.774  1.00  0.00     0.031 A 
ATOM     15  C6  FTA A   1       3.430  17.780  15.421  1.00  0.00     0.031 A 
ATOM     16  C7  FTA A   1       2.427  17.405  16.311  1.00  0.00     0.032 A 
ATOM     17  C5  FTA A   1       2.801  16.977  17.573  1.00  0.00     0.031 A 
ATOM     18  C3  FTA A   1       4.139  16.962  17.947  1.00  0.00     0.031 A 
BRANCH  16  19
ATOM     19  N8  FTA A   1       1.049  17.614  16.051  1.00  0.00    -0.356 N 
ATOM     20  H1  FTA A   1       0.626  18.481  16.414  1.00  0.00     0.166 HD
BRANCH  19  21
ATOM     21  C24 FTA A   1       0.200  16.724  15.327  1.00  0.00     0.032 A 
ATOM     22  C26 FTA A   1      -1.026  17.125  14.851  1.00  0.00     0.029 A 
ATOM     23  C28 FTA A   1      -1.871  16.173  14.313  1.00  0.00     0.002 A 
ATOM     24  C30 FTA A   1      -1.516  14.838  14.208  1.00  0.00     0.000 A 
ATOM     25  C29 FTA A   1      -0.283  14.433  14.644  1.00  0.00     0.002 A 
ATOM     26  C27 FTA A   1       0.574  15.394  15.193  1.00  0.00     0.029 A 
ENDBRANCH  19  21
ENDBRANCH  16  19
ENDBRANCH  11  13
ENDBRANCH   1  11
TORSDOF 5
ENDMDL
MODEL 8
REMARK VINA RESULT:    -5.464      7.577     13.613
REMARK INTER + INTRA:          -8.076
REMARK INTER:                  -7.062
REMARK INTRA:                  -1.014
REMARK UNBOUND:                -1.014
REMARK  5 active torsions:
REMARK  status: ('A' for Active; 'I' for Inactive)
REMARK    1  A    between atoms: N8_1  and  C24_2 
REMARK    2  A    between atoms: N8_1  and  C7_8 
REMARK    3  A    between atoms: C2_13  and  N1_14 
REMARK    4  A    between atoms: N1_14  and  C17_15 
REMARK    5  A    between atoms: C14_16  and  C13_19 
ROOT
ATOM      1  C17 FTA A   1       5.928  18.652  20.137  1.00  0.00     0.142 C 
ATOM      2  C14 FTA A   1       6.162  18.079  18.940  1.00  0.00     0.158 C 
ATOM      3  C18 FTA A   1       5.056  17.682  18.095  1.00  0.00     0.069 C 
ATOM      4  N21 FTA A   1       4.071  17.362  17.547  1.00  0.00    -0.197 NA
ENDROOT
BRANCH   2   5
ATOM      5  C13 FTA A   1       7.558  17.873  18.492  1.00  0.00     0.197 A 
ATOM      6  N15 FTA A   1       8.006  16.875  17.629  1.00  0.00    -0.093 NA
ATOM      7  N19 FTA A   1       9.383  17.013  17.510  1.00  0.00    -0.231 N 
ATOM      8  N20 FTA A   1       9.803  18.082  18.288  1.00  0.00    -0.017 NA
ATOM      9  H15 FTA A   1       9.996  16.416  16.935  1.00  0.00     0.200 HD
ATOM     10  N16 FTA A   1       8.671  18.623  18.889  1.00  0.00    -0.090 NA
ENDBRANCH   2   5
BRANCH   1  11
ATOM     11  N1  FTA A   1       6.511  18.131  21.234  1.00  0.00    -0.389 N 
ATOM     12  H11 FTA A   1       6.311  17.145  21.456  1.00  0.00     0.159 HD
BRANCH  11  13
ATOM     13  C2  FTA A   1       7.381  18.837  22.109  1.00  0.00     0.028 A 
ATOM     14  C4  FTA A   1       8.649  18.362  22.436  1.00  0.00     0.031 A 
ATOM     15  C6  FTA A   1       9.359  18.980  23.474  1.00  0.00     0.031 A 
ATOM     16  C7  FTA A   1       8.838  20.053  24.191  1.00  0.00     0.032 A 
ATOM     17  C5  FTA A   1       7.588  20.529  23.838  1.00  0.00     0.031 A 
ATOM     18  C3  FTA A   1       6.862  19.922  22.821  1.00  0.00     0.031 A 
BRANCH  16  19
ATOM     19  N8  FTA A   1       9.442  20.555  25.372  1.00  0.00    -0.356 N 
ATOM     20  H1  FTA A   1      10.069  21.367  25.273  1.00  0.00     0.166 HD
BRANCH  19  21
ATOM     21  C24 FTA A   1       9.253  20.029  26.686  1.00  0.00     0.032 A 
ATOM     22  C26 FTA A   1       8.163  20.374  27.449  1.00  0.00     0.029 A 
ATOM     23  C28 FTA A   1       8.125  19.970  28.771  1.00  0.00     0.002 A 
ATOM     24  C30 FTA A   1       9.129  19.206  29.342  1.00  0.00     0.000 A 
ATOM     25  C29 FTA A   1      10.202  18.825  28.582  1.00  0.00     0.002 A 
ATOM     26  C27 FTA A   1      10.244  19.235  27.244  1.00  0.00     0.029 A 
ENDBRANCH  19  21
ENDBRANCH  16  19
ENDBRANCH  11  13
ENDBRANCH   1  11
TORSDOF 5
ENDMDL
