REMARK  5 active torsions:
REMARK  status: ('A' for Active; 'I' for Inactive)
REMARK    1  A    between atoms: N8_1  and  C24_2 
REMARK    2  A    between atoms: N8_1  and  C7_8 
REMARK    3  A    between atoms: C2_13  and  N1_14 
REMARK    4  A    between atoms: N1_14  and  C17_15 
REMARK    5  A    between atoms: C14_16  and  C13_19 
ROOT
ATOM      1  C17 FTA A   1       4.214  16.307  17.290  1.00  0.00     0.142 C 
ATOM      2  C14 FTA A   1       4.300  17.312  16.396  1.00  0.00     0.158 C 
ATOM      3  C18 FTA A   1       5.084  18.490  16.699  1.00  0.00     0.069 C 
ATOM      4  N21 FTA A   1       5.703  19.401  17.101  1.00  0.00    -0.197 NA
ENDROOT
BRANCH   2   5
ATOM      5  C13 FTA A   1       3.599  17.193  15.097  1.00  0.00     0.197 A 
ATOM      6  N15 FTA A   1       4.074  17.632  13.863  1.00  0.00    -0.093 NA
ATOM      7  N19 FTA A   1       3.090  17.369  12.919  1.00  0.00    -0.231 N 
ATOM      8  N20 FTA A   1       2.005  16.774  13.546  1.00  0.00    -0.017 NA
ATOM      9  H15 FTA A   1       3.155  17.582  11.913  1.00  0.00     0.200 HD
ATOM     10  N16 FTA A   1       2.323  16.654  14.895  1.00  0.00    -0.090 NA
ENDBRANCH   2   5
BRANCH   1  11
ATOM     11  N1  FTA A   1       2.996  15.865  17.658  1.00  0.00    -0.389 N 
ATOM     12  H11 FTA A   1       2.203  16.515  17.556  1.00  0.00     0.159 HD
BRANCH  11  13
ATOM     13  C2  FTA A   1       2.721  14.570  18.176  1.00  0.00     0.028 A 
ATOM     14  C4  FTA A   1       1.691  13.776  17.678  1.00  0.00     0.031 A 
ATOM     15  C6  FTA A   1       1.326  12.618  18.378  1.00  0.00     0.031 A 
ATOM     16  C7  FTA A   1       1.959  12.236  19.558  1.00  0.00     0.032 A 
ATOM     17  C5  FTA A   1       2.997  13.022  20.026  1.00  0.00     0.031 A 
ATOM     18  C3  FTA A   1       3.365  14.181  19.354  1.00  0.00     0.031 A 
BRANCH  16  19
ATOM     19  N8  FTA A   1       1.474  11.194  20.389  1.00  0.00    -0.356 N 
ATOM     20  H1  FTA A   1       0.453  11.118  20.504  1.00  0.00     0.166 HD
BRANCH  19  21
ATOM     21  C24 FTA A   1       2.284  10.242  21.079  1.00  0.00     0.032 A 
ATOM     22  C26 FTA A   1       3.652  10.227  20.943  1.00  0.00     0.029 A 
ATOM     23  C28 FTA A   1       4.361   9.178  21.497  1.00  0.00     0.002 A 
ATOM     24  C30 FTA A   1       3.748   8.161  22.209  1.00  0.00     0.000 A 
ATOM     25  C29 FTA A   1       2.390   8.185  22.384  1.00  0.00     0.002 A 
ATOM     26  C27 FTA A   1       1.669   9.244  21.821  1.00  0.00     0.029 A 
ENDBRANCH  19  21
ENDBRANCH  16  19
ENDBRANCH  11  13
ENDBRANCH   1  11
TORSDOF 5
