MODEL 1
REMARK VINA RESULT:    -6.833      0.000      0.000
REMARK INTER + INTRA:          -9.158
REMARK INTER:                  -8.006
REMARK INTRA:                  -1.152
REMARK UNBOUND:                -1.127
REMARK  4 active torsions:
REMARK  status: ('A' for Active; 'I' for Inactive)
REMARK    1  A    between atoms: C_7  and  N_8 
REMARK    2  A    between atoms: C_14  and  C_15 
REMARK    3  A    between atoms: C_18  and  O_19 
REMARK    4  A    between atoms: C_21  and  O_22 
ROOT
HETATM    1  N   UNL     1       7.500  14.029  24.841  0.00  0.00    -0.244 N 
HETATM    2  C   UNL     1       8.199  14.527  25.923  0.00  0.00     0.349 A 
HETATM    3  O   UNL     1       7.858  15.340  26.767  0.00  0.00    -0.245 OA
HETATM    4  N   UNL     1       9.432  13.892  25.887  0.00  0.00    -0.226 N 
HETATM    5  H   UNL     1      10.195  14.034  26.532  0.00  0.00     0.194 HD
HETATM    6  N   UNL     1       9.540  13.110  24.785  0.00  0.00    -0.151 NA
HETATM    7  C   UNL     1       8.387  13.209  24.173  0.00  0.00     0.171 A 
ENDROOT
BRANCH   7   8
HETATM    8  C   UNL     1       8.172  12.580  22.830  0.00  0.00     0.045 A 
HETATM    9  C   UNL     1       7.328  11.471  22.656  0.00  0.00     0.021 A 
HETATM   10  C   UNL     1       7.019  10.986  21.376  0.00  0.00     0.037 A 
HETATM   11  C   UNL     1       7.521  11.634  20.256  0.00  0.00     0.068 A 
HETATM   12  C   UNL     1       8.342  12.744  20.391  0.00  0.00     0.074 A 
HETATM   13  C   UNL     1       8.685  13.197  21.670  0.00  0.00     0.082 A 
BRANCH  11  14
HETATM   14  O   UNL     1       7.234  11.213  18.992  0.00  0.00    -0.361 OA
HETATM   15  H   UNL     1       6.419  10.683  19.015  0.00  0.00     0.217 HD
ENDBRANCH  11  14
BRANCH  13  16
HETATM   16  O   UNL     1       9.558  14.249  21.756  0.00  0.00    -0.360 OA
HETATM   17  H   UNL     1      10.291  14.019  22.349  0.00  0.00     0.217 HD
ENDBRANCH  13  16
ENDBRANCH   7   8
BRANCH   1  18
HETATM   18  C   UNL     1       6.188  14.429  24.534  0.00  0.00     0.051 A 
HETATM   19  C   UNL     1       5.081  13.575  24.702  0.00  0.00    -0.035 A 
HETATM   20  C   UNL     1       5.157  12.335  25.549  0.00  0.00     0.050 C 
HETATM   21  C   UNL     1       3.823  14.001  24.243  0.00  0.00     0.009 A 
HETATM   22  C   UNL     1       3.653  15.267  23.681  0.00  0.00     0.001 A 
HETATM   23  C   UNL     1       4.727  16.147  23.619  0.00  0.00     0.002 A 
HETATM   24  C   UNL     1       5.986  15.733  24.049  0.00  0.00     0.031 A 
ENDBRANCH   1  18
TORSDOF 4
ENDMDL
MODEL 2
REMARK VINA RESULT:    -6.608      1.547      2.360
REMARK INTER + INTRA:          -8.893
REMARK INTER:                  -7.654
REMARK INTRA:                  -1.239
REMARK UNBOUND:                -1.127
REMARK  4 active torsions:
REMARK  status: ('A' for Active; 'I' for Inactive)
REMARK    1  A    between atoms: C_7  and  N_8 
REMARK    2  A    between atoms: C_14  and  C_15 
REMARK    3  A    between atoms: C_18  and  O_19 
REMARK    4  A    between atoms: C_21  and  O_22 
ROOT
HETATM    1  N   UNL     1       7.443  12.823  24.023  0.00  0.00    -0.244 N 
HETATM    2  C   UNL     1       8.423  12.789  24.994  0.00  0.00     0.349 A 
HETATM    3  O   UNL     1       8.657  13.576  25.897  0.00  0.00    -0.245 OA
HETATM    4  N   UNL     1       9.136  11.623  24.756  0.00  0.00    -0.226 N 
HETATM    5  H   UNL     1       9.934  11.295  25.279  0.00  0.00     0.194 HD
HETATM    6  N   UNL     1       8.690  11.006  23.634  0.00  0.00    -0.151 NA
HETATM    7  C   UNL     1       7.690  11.735  23.208  0.00  0.00     0.171 A 
ENDROOT
BRANCH   7   8
HETATM    8  C   UNL     1       7.020  11.436  21.902  0.00  0.00     0.045 A 
HETATM    9  C   UNL     1       5.650  11.136  21.822  0.00  0.00     0.021 A 
HETATM   10  C   UNL     1       5.006  11.006  20.581  0.00  0.00     0.037 A 
HETATM   11  C   UNL     1       5.721  11.215  19.411  0.00  0.00     0.068 A 
HETATM   12  C   UNL     1       7.070  11.533  19.454  0.00  0.00     0.074 A 
HETATM   13  C   UNL     1       7.720  11.617  20.691  0.00  0.00     0.082 A 
BRANCH  11  14
HETATM   14  O   UNL     1       5.136  11.120  18.184  0.00  0.00    -0.361 OA
HETATM   15  H   UNL     1       5.532  11.783  17.594  0.00  0.00     0.217 HD
ENDBRANCH  11  14
BRANCH  13  16
HETATM   16  O   UNL     1       9.069  11.858  20.683  0.00  0.00    -0.360 OA
HETATM   17  H   UNL     1       9.523  11.192  21.224  0.00  0.00     0.217 HD
ENDBRANCH  13  16
ENDBRANCH   7   8
BRANCH   1  18
HETATM   18  C   UNL     1       6.499  13.862  23.929  0.00  0.00     0.051 A 
HETATM   19  C   UNL     1       6.767  15.062  23.243  0.00  0.00    -0.035 A 
HETATM   20  C   UNL     1       7.904  15.183  22.267  0.00  0.00     0.050 C 
HETATM   21  C   UNL     1       5.826  16.104  23.312  0.00  0.00     0.009 A 
HETATM   22  C   UNL     1       4.620  15.941  23.997  0.00  0.00     0.001 A 
HETATM   23  C   UNL     1       4.315  14.715  24.578  0.00  0.00     0.002 A 
HETATM   24  C   UNL     1       5.246  13.679  24.538  0.00  0.00     0.031 A 
ENDBRANCH   1  18
TORSDOF 4
ENDMDL
MODEL 3
REMARK VINA RESULT:    -6.599      0.514      1.535
REMARK INTER + INTRA:          -8.884
REMARK INTER:                  -7.657
REMARK INTRA:                  -1.226
REMARK UNBOUND:                -1.127
REMARK  4 active torsions:
REMARK  status: ('A' for Active; 'I' for Inactive)
REMARK    1  A    between atoms: C_7  and  N_8 
REMARK    2  A    between atoms: C_14  and  C_15 
REMARK    3  A    between atoms: C_18  and  O_19 
REMARK    4  A    between atoms: C_21  and  O_22 
ROOT
HETATM    1  N   UNL     1       7.289  13.892  24.821  0.00  0.00    -0.244 N 
HETATM    2  C   UNL     1       8.015  14.451  25.853  0.00  0.00     0.349 A 
HETATM    3  O   UNL     1       7.687  15.295  26.673  0.00  0.00    -0.245 OA
HETATM    4  N   UNL     1       9.260  13.840  25.800  0.00  0.00    -0.226 N 
HETATM    5  H   UNL     1      10.042  14.026  26.410  0.00  0.00     0.194 HD
HETATM    6  N   UNL     1       9.344  13.012  24.730  0.00  0.00    -0.151 NA
HETATM    7  C   UNL     1       8.168  13.060  24.157  0.00  0.00     0.171 A 
ENDROOT
BRANCH   7   8
HETATM    8  C   UNL     1       7.919  12.367  22.852  0.00  0.00     0.045 A 
HETATM    9  C   UNL     1       6.958  11.352  22.723  0.00  0.00     0.021 A 
HETATM   10  C   UNL     1       6.630  10.816  21.468  0.00  0.00     0.037 A 
HETATM   11  C   UNL     1       7.233  11.324  20.326  0.00  0.00     0.068 A 
HETATM   12  C   UNL     1       8.172  12.341  20.415  0.00  0.00     0.074 A 
HETATM   13  C   UNL     1       8.531  12.841  21.672  0.00  0.00     0.082 A 
BRANCH  11  14
HETATM   14  O   UNL     1       6.934  10.851  19.083  0.00  0.00    -0.361 OA
HETATM   15  H   UNL     1       7.762  10.674  18.606  0.00  0.00     0.217 HD
ENDBRANCH  11  14
BRANCH  13  16
HETATM   16  O   UNL     1       9.516  13.791  21.719  0.00  0.00    -0.360 OA
HETATM   17  H   UNL     1       9.664  14.154  20.831  0.00  0.00     0.217 HD
ENDBRANCH  13  16
ENDBRANCH   7   8
BRANCH   1  18
HETATM   18  C   UNL     1       5.958  14.251  24.545  0.00  0.00     0.051 A 
HETATM   19  C   UNL     1       5.627  15.392  23.788  0.00  0.00    -0.035 A 
HETATM   20  C   UNL     1       6.639  16.091  22.923  0.00  0.00     0.050 C 
HETATM   21  C   UNL     1       4.275  15.758  23.673  0.00  0.00     0.009 A 
HETATM   22  C   UNL     1       3.267  14.980  24.246  0.00  0.00     0.001 A 
HETATM   23  C   UNL     1       3.593  13.796  24.898  0.00  0.00     0.002 A 
HETATM   24  C   UNL     1       4.930  13.429  25.040  0.00  0.00     0.031 A 
ENDBRANCH   1  18
TORSDOF 4
ENDMDL
MODEL 4
REMARK VINA RESULT:    -6.560      2.360      3.347
REMARK INTER + INTRA:          -8.838
REMARK INTER:                  -7.782
REMARK INTRA:                  -1.055
REMARK UNBOUND:                -1.127
REMARK  4 active torsions:
REMARK  status: ('A' for Active; 'I' for Inactive)
REMARK    1  A    between atoms: C_7  and  N_8 
REMARK    2  A    between atoms: C_14  and  C_15 
REMARK    3  A    between atoms: C_18  and  O_19 
REMARK    4  A    between atoms: C_21  and  O_22 
ROOT
HETATM    1  N   UNL     1       7.997  14.426  22.203  0.00  0.00    -0.244 N 
HETATM    2  C   UNL     1       8.983  15.187  21.608  0.00  0.00     0.349 A 
HETATM    3  O   UNL     1       9.328  16.336  21.835  0.00  0.00    -0.245 OA
HETATM    4  N   UNL     1       9.558  14.362  20.652  0.00  0.00    -0.226 N 
HETATM    5  H   UNL     1      10.308  14.610  20.024  0.00  0.00     0.194 HD
HETATM    6  N   UNL     1       8.903  13.177  20.582  0.00  0.00    -0.151 NA
HETATM    7  C   UNL     1       7.976  13.235  21.504  0.00  0.00     0.171 A 
ENDROOT
BRANCH   7   8
HETATM    8  C   UNL     1       6.955  12.146  21.640  0.00  0.00     0.045 A 
HETATM    9  C   UNL     1       5.597  12.363  21.357  0.00  0.00     0.021 A 
HETATM   10  C   UNL     1       4.679  11.301  21.344  0.00  0.00     0.037 A 
HETATM   11  C   UNL     1       5.122  10.007  21.573  0.00  0.00     0.068 A 
HETATM   12  C   UNL     1       6.461   9.754  21.836  0.00  0.00     0.074 A 
HETATM   13  C   UNL     1       7.366  10.820  21.894  0.00  0.00     0.082 A 
BRANCH  11  14
HETATM   14  O   UNL     1       4.274   8.941  21.551  0.00  0.00    -0.361 OA
HETATM   15  H   UNL     1       4.179   8.633  20.634  0.00  0.00     0.217 HD
ENDBRANCH  11  14
BRANCH  13  16
HETATM   16  O   UNL     1       8.662  10.534  22.231  0.00  0.00    -0.360 OA
HETATM   17  H   UNL     1       9.056   9.956  21.558  0.00  0.00     0.217 HD
ENDBRANCH  13  16
ENDBRANCH   7   8
BRANCH   1  18
HETATM   18  C   UNL     1       7.180  14.912  23.239  0.00  0.00     0.051 A 
HETATM   19  C   UNL     1       7.506  14.741  24.598  0.00  0.00    -0.035 A 
HETATM   20  C   UNL     1       8.894  14.368  25.041  0.00  0.00     0.050 C 
HETATM   21  C   UNL     1       6.572  15.134  25.572  0.00  0.00     0.009 A 
HETATM   22  C   UNL     1       5.365  15.735  25.210  0.00  0.00     0.001 A 
HETATM   23  C   UNL     1       5.098  16.001  23.872  0.00  0.00     0.002 A 
HETATM   24  C   UNL     1       6.004  15.599  22.892  0.00  0.00     0.031 A 
ENDBRANCH   1  18
TORSDOF 4
ENDMDL
MODEL 5
REMARK VINA RESULT:    -6.375      3.321      4.572
REMARK INTER + INTRA:          -8.619
REMARK INTER:                  -7.362
REMARK INTRA:                  -1.257
REMARK UNBOUND:                -1.127
REMARK  4 active torsions:
REMARK  status: ('A' for Active; 'I' for Inactive)
REMARK    1  A    between atoms: C_7  and  N_8 
REMARK    2  A    between atoms: C_14  and  C_15 
REMARK    3  A    between atoms: C_18  and  O_19 
REMARK    4  A    between atoms: C_21  and  O_22 
ROOT
HETATM    1  N   UNL     1       3.584  13.623  23.704  0.00  0.00    -0.244 N 
HETATM    2  C   UNL     1       2.480  14.083  24.394  0.00  0.00     0.349 A 
HETATM    3  O   UNL     1       2.403  14.923  25.276  0.00  0.00    -0.245 OA
HETATM    4  N   UNL     1       1.402  13.386  23.868  0.00  0.00    -0.226 N 
HETATM    5  H   UNL     1       0.439  13.472  24.156  0.00  0.00     0.194 HD
HETATM    6  N   UNL     1       1.818  12.466  22.964  0.00  0.00    -0.151 NA
HETATM    7  C   UNL     1       3.116  12.616  22.884  0.00  0.00     0.171 A 
ENDROOT
BRANCH   7   8
HETATM    8  C   UNL     1       3.952  11.673  22.073  0.00  0.00     0.045 A 
HETATM    9  C   UNL     1       4.732  12.116  20.992  0.00  0.00     0.021 A 
HETATM   10  C   UNL     1       5.623  11.252  20.336  0.00  0.00     0.037 A 
HETATM   11  C   UNL     1       5.770   9.947  20.785  0.00  0.00     0.068 A 
HETATM   12  C   UNL     1       5.030   9.483  21.862  0.00  0.00     0.074 A 
HETATM   13  C   UNL     1       4.109  10.333  22.485  0.00  0.00     0.082 A 
BRANCH  11  14
HETATM   14  O   UNL     1       6.636   9.076  20.195  0.00  0.00    -0.361 OA
HETATM   15  H   UNL     1       6.330   8.168  20.359  0.00  0.00     0.217 HD
ENDBRANCH  11  14
BRANCH  13  16
HETATM   16  O   UNL     1       3.346   9.811  23.495  0.00  0.00    -0.360 OA
HETATM   17  H   UNL     1       3.672  10.131  24.351  0.00  0.00     0.217 HD
ENDBRANCH  13  16
ENDBRANCH   7   8
BRANCH   1  18
HETATM   18  C   UNL     1       4.886  14.097  23.948  0.00  0.00     0.051 A 
HETATM   19  C   UNL     1       5.720  13.534  24.933  0.00  0.00    -0.035 A 
HETATM   20  C   UNL     1       5.442  12.184  25.532  0.00  0.00     0.050 C 
HETATM   21  C   UNL     1       6.952  14.152  25.208  0.00  0.00     0.009 A 
HETATM   22  C   UNL     1       7.375  15.269  24.485  0.00  0.00     0.001 A 
HETATM   23  C   UNL     1       6.596  15.752  23.440  0.00  0.00     0.002 A 
HETATM   24  C   UNL     1       5.362  15.165  23.167  0.00  0.00     0.031 A 
ENDBRANCH   1  18
TORSDOF 4
ENDMDL
MODEL 6
REMARK VINA RESULT:    -6.316      2.961      5.442
REMARK INTER + INTRA:          -8.550
REMARK INTER:                  -7.567
REMARK INTRA:                  -0.983
REMARK UNBOUND:                -1.127
REMARK  4 active torsions:
REMARK  status: ('A' for Active; 'I' for Inactive)
REMARK    1  A    between atoms: C_7  and  N_8 
REMARK    2  A    between atoms: C_14  and  C_15 
REMARK    3  A    between atoms: C_18  and  O_19 
REMARK    4  A    between atoms: C_21  and  O_22 
ROOT
HETATM    1  N   UNL     1       7.614  12.590  21.929  0.00  0.00    -0.244 N 
HETATM    2  C   UNL     1       8.348  12.090  20.872  0.00  0.00     0.349 A 
HETATM    3  O   UNL     1       9.558  12.020  20.724  0.00  0.00    -0.245 OA
HETATM    4  N   UNL     1       7.411  11.642  19.952  0.00  0.00    -0.226 N 
HETATM    5  H   UNL     1       7.608  11.227  19.054  0.00  0.00     0.194 HD
HETATM    6  N   UNL     1       6.153  11.935  20.366  0.00  0.00    -0.151 NA
HETATM    7  C   UNL     1       6.293  12.503  21.537  0.00  0.00     0.171 A 
ENDROOT
BRANCH   7   8
HETATM    8  C   UNL     1       5.115  13.090  22.254  0.00  0.00     0.045 A 
HETATM    9  C   UNL     1       5.144  14.387  22.790  0.00  0.00     0.021 A 
HETATM   10  C   UNL     1       3.989  14.978  23.326  0.00  0.00     0.037 A 
HETATM   11  C   UNL     1       2.786  14.288  23.292  0.00  0.00     0.068 A 
HETATM   12  C   UNL     1       2.717  13.012  22.752  0.00  0.00     0.074 A 
HETATM   13  C   UNL     1       3.880  12.408  22.260  0.00  0.00     0.082 A 
BRANCH  11  14
HETATM   14  O   UNL     1       1.634  14.826  23.781  0.00  0.00    -0.361 OA
HETATM   15  H   UNL     1       0.877  14.410  23.334  0.00  0.00     0.217 HD
ENDBRANCH  11  14
BRANCH  13  16
HETATM   16  O   UNL     1       3.781  11.120  21.805  0.00  0.00    -0.360 OA
HETATM   17  H   UNL     1       4.138  10.510  22.470  0.00  0.00     0.217 HD
ENDBRANCH  13  16
ENDBRANCH   7   8
BRANCH   1  18
HETATM   18  C   UNL     1       8.210  13.139  23.078  0.00  0.00     0.051 A 
HETATM   19  C   UNL     1       8.788  14.424  23.086  0.00  0.00    -0.035 A 
HETATM   20  C   UNL     1       8.495  15.433  22.011  0.00  0.00     0.050 C 
HETATM   21  C   UNL     1       9.484  14.844  24.232  0.00  0.00     0.009 A 
HETATM   22  C   UNL     1       9.558  14.035  25.367  0.00  0.00     0.001 A 
HETATM   23  C   UNL     1       8.893  12.814  25.391  0.00  0.00     0.002 A 
HETATM   24  C   UNL     1       8.216  12.372  24.256  0.00  0.00     0.031 A 
ENDBRANCH   1  18
TORSDOF 4
ENDMDL
MODEL 7
REMARK VINA RESULT:    -6.199      3.151      6.169
REMARK INTER + INTRA:          -8.413
REMARK INTER:                  -7.317
REMARK INTRA:                  -1.096
REMARK UNBOUND:                -1.127
REMARK  4 active torsions:
REMARK  status: ('A' for Active; 'I' for Inactive)
REMARK    1  A    between atoms: C_7  and  N_8 
REMARK    2  A    between atoms: C_14  and  C_15 
REMARK    3  A    between atoms: C_18  and  O_19 
REMARK    4  A    between atoms: C_21  and  O_22 
ROOT
HETATM    1  N   UNL     1       6.073  11.976  20.845  0.00  0.00    -0.244 N 
HETATM    2  C   UNL     1       6.061  11.493  19.552  0.00  0.00     0.349 A 
HETATM    3  O   UNL     1       6.992  11.205  18.817  0.00  0.00    -0.245 OA
HETATM    4  N   UNL     1       4.720  11.372  19.217  0.00  0.00    -0.226 N 
HETATM    5  H   UNL     1       4.353  11.055  18.333  0.00  0.00     0.194 HD
HETATM    6  N   UNL     1       3.931  11.849  20.211  0.00  0.00    -0.151 NA
HETATM    7  C   UNL     1       4.750  12.209  21.166  0.00  0.00     0.171 A 
ENDROOT
BRANCH   7   8
HETATM    8  C   UNL     1       4.245  12.912  22.390  0.00  0.00     0.045 A 
HETATM    9  C   UNL     1       4.653  14.215  22.717  0.00  0.00     0.021 A 
HETATM   10  C   UNL     1       4.061  14.917  23.780  0.00  0.00     0.037 A 
HETATM   11  C   UNL     1       3.028  14.332  24.497  0.00  0.00     0.068 A 
HETATM   12  C   UNL     1       2.587  13.054  24.188  0.00  0.00     0.074 A 
HETATM   13  C   UNL     1       3.210  12.339  23.158  0.00  0.00     0.082 A 
BRANCH  11  14
HETATM   14  O   UNL     1       2.408  14.979  25.524  0.00  0.00    -0.361 OA
HETATM   15  H   UNL     1       2.929  14.854  26.335  0.00  0.00     0.217 HD
ENDBRANCH  11  14
BRANCH  13  16
HETATM   16  O   UNL     1       2.794  11.053  22.936  0.00  0.00    -0.360 OA
HETATM   17  H   UNL     1       3.277  10.678  22.184  0.00  0.00     0.217 HD
ENDBRANCH  13  16
ENDBRANCH   7   8
BRANCH   1  18
HETATM   18  C   UNL     1       7.261  12.231  21.552  0.00  0.00     0.051 A 
HETATM   19  C   UNL     1       7.783  11.329  22.499  0.00  0.00    -0.035 A 
HETATM   20  C   UNL     1       7.334   9.895  22.560  0.00  0.00     0.050 C 
HETATM   21  C   UNL     1       8.898  11.718  23.260  0.00  0.00     0.009 A 
HETATM   22  C   UNL     1       9.518  12.951  23.051  0.00  0.00     0.001 A 
HETATM   23  C   UNL     1       9.065  13.791  22.040  0.00  0.00     0.002 A 
HETATM   24  C   UNL     1       7.948  13.430  21.289  0.00  0.00     0.031 A 
ENDBRANCH   1  18
TORSDOF 4
ENDMDL
MODEL 8
REMARK VINA RESULT:    -6.176      2.838      4.989
REMARK INTER + INTRA:          -8.386
REMARK INTER:                  -7.126
REMARK INTRA:                  -1.260
REMARK UNBOUND:                -1.127
REMARK  4 active torsions:
REMARK  status: ('A' for Active; 'I' for Inactive)
REMARK    1  A    between atoms: C_7  and  N_8 
REMARK    2  A    between atoms: C_14  and  C_15 
REMARK    3  A    between atoms: C_18  and  O_19 
REMARK    4  A    between atoms: C_21  and  O_22 
ROOT
HETATM    1  N   UNL     1       5.297  11.917  21.437  0.00  0.00    -0.244 N 
HETATM    2  C   UNL     1       5.423  11.137  20.305  0.00  0.00     0.349 A 
HETATM    3  O   UNL     1       4.615  10.390  19.776  0.00  0.00    -0.245 OA
HETATM    4  N   UNL     1       6.707  11.375  19.836  0.00  0.00    -0.226 N 
HETATM    5  H   UNL     1       7.133  10.954  19.024  0.00  0.00     0.194 HD
HETATM    6  N   UNL     1       7.386  12.186  20.684  0.00  0.00    -0.151 NA
HETATM    7  C   UNL     1       6.537  12.492  21.631  0.00  0.00     0.171 A 
ENDROOT
BRANCH   7   8
HETATM    8  C   UNL     1       6.972  13.275  22.832  0.00  0.00     0.045 A 
HETATM    9  C   UNL     1       6.527  14.587  23.064  0.00  0.00     0.021 A 
HETATM   10  C   UNL     1       6.821  15.254  24.263  0.00  0.00     0.037 A 
HETATM   11  C   UNL     1       7.531  14.596  25.258  0.00  0.00     0.068 A 
HETATM   12  C   UNL     1       7.969  13.293  25.070  0.00  0.00     0.074 A 
HETATM   13  C   UNL     1       7.713  12.647  23.855  0.00  0.00     0.082 A 
BRANCH  11  14
HETATM   14  O   UNL     1       7.824  15.193  26.447  0.00  0.00    -0.361 OA
HETATM   15  H   UNL     1       8.684  15.639  26.372  0.00  0.00     0.217 HD
ENDBRANCH  11  14
BRANCH  13  16
HETATM   16  O   UNL     1       8.230  11.390  23.685  0.00  0.00    -0.360 OA
HETATM   17  H   UNL     1       7.541  10.797  23.345  0.00  0.00     0.217 HD
ENDBRANCH  13  16
ENDBRANCH   7   8
BRANCH   1  18
HETATM   18  C   UNL     1       4.121  11.956  22.207  0.00  0.00     0.051 A 
HETATM   19  C   UNL     1       3.851  11.015  23.218  0.00  0.00    -0.035 A 
HETATM   20  C   UNL     1       4.928  10.141  23.798  0.00  0.00     0.050 C 
HETATM   21  C   UNL     1       2.594  11.041  23.848  0.00  0.00     0.009 A 
HETATM   22  C   UNL     1       1.646  12.013  23.523  0.00  0.00     0.001 A 
HETATM   23  C   UNL     1       1.961  13.006  22.602  0.00  0.00     0.002 A 
HETATM   24  C   UNL     1       3.194  12.983  21.953  0.00  0.00     0.031 A 
ENDBRANCH   1  18
TORSDOF 4
ENDMDL
MODEL 9
REMARK VINA RESULT:    -6.135      2.592      4.414
REMARK INTER + INTRA:          -8.338
REMARK INTER:                  -7.211
REMARK INTRA:                  -1.127
REMARK UNBOUND:                -1.127
REMARK  4 active torsions:
REMARK  status: ('A' for Active; 'I' for Inactive)
REMARK    1  A    between atoms: C_7  and  N_8 
REMARK    2  A    between atoms: C_14  and  C_15 
REMARK    3  A    between atoms: C_18  and  O_19 
REMARK    4  A    between atoms: C_21  and  O_22 
ROOT
HETATM    1  N   UNL     1       7.156  13.595  24.238  0.00  0.00    -0.244 N 
HETATM    2  C   UNL     1       7.869  13.199  25.352  0.00  0.00     0.349 A 
HETATM    3  O   UNL     1       9.067  13.264  25.578  0.00  0.00    -0.245 OA
HETATM    4  N   UNL     1       6.923  12.693  26.233  0.00  0.00    -0.226 N 
HETATM    5  H   UNL     1       7.106  12.305  27.146  0.00  0.00     0.194 HD
HETATM    6  N   UNL     1       5.693  12.680  25.663  0.00  0.00    -0.151 NA
HETATM    7  C   UNL     1       5.851  13.212  24.477  0.00  0.00     0.171 A 
ENDROOT
BRANCH   7   8
HETATM    8  C   UNL     1       4.723  13.247  23.492  0.00  0.00     0.045 A 
HETATM    9  C   UNL     1       4.726  12.457  22.331  0.00  0.00     0.021 A 
HETATM   10  C   UNL     1       3.601  12.388  21.495  0.00  0.00     0.037 A 
HETATM   11  C   UNL     1       2.447  13.078  21.839  0.00  0.00     0.068 A 
HETATM   12  C   UNL     1       2.402  13.852  22.989  0.00  0.00     0.074 A 
HETATM   13  C   UNL     1       3.541  13.956  23.796  0.00  0.00     0.082 A 
BRANCH  11  14
HETATM   14  O   UNL     1       1.322  13.026  21.071  0.00  0.00    -0.361 OA
HETATM   15  H   UNL     1       1.439  12.345  20.388  0.00  0.00     0.217 HD
ENDBRANCH  11  14
BRANCH  13  16
HETATM   16  O   UNL     1       3.476  14.791  24.880  0.00  0.00    -0.360 OA
HETATM   17  H   UNL     1       3.011  15.608  24.637  0.00  0.00     0.217 HD
ENDBRANCH  13  16
ENDBRANCH   7   8
BRANCH   1  18
HETATM   18  C   UNL     1       7.766  14.171  23.110  0.00  0.00     0.051 A 
HETATM   19  C   UNL     1       8.437  13.402  22.141  0.00  0.00    -0.035 A 
HETATM   20  C   UNL     1       8.244  11.914  22.035  0.00  0.00     0.050 C 
HETATM   21  C   UNL     1       9.136  14.064  21.118  0.00  0.00     0.009 A 
HETATM   22  C   UNL     1       9.125  15.457  21.022  0.00  0.00     0.001 A 
HETATM   23  C   UNL     1       8.370  16.205  21.918  0.00  0.00     0.002 A 
HETATM   24  C   UNL     1       7.688  15.566  22.951  0.00  0.00     0.031 A 
ENDBRANCH   1  18
TORSDOF 4
ENDMDL
