MODEL 1
REMARK VINA RESULT:    -9.567      0.000      0.000
REMARK INTER + INTRA:         -13.458
REMARK INTER:                 -12.317
REMARK INTRA:                  -1.141
REMARK UNBOUND:                -1.375
REMARK  5 active torsions:
REMARK  status: ('A' for Active; 'I' for Inactive)
REMARK    1  A    between atoms: C_7  and  N_8 
REMARK       I    between atoms: N_8  and  C_10 
REMARK    2  A    between atoms: C_10  and  C_12 
REMARK    3  A    between atoms: C_14  and  O_15 
REMARK    4  A    between atoms: C_22  and  C_23 
REMARK    5  A    between atoms: C_23  and  C_24 
ROOT
HETATM    1  C   UNL     1      -2.780  14.791  22.263  0.00  0.00     0.066 C 
HETATM    2  C   UNL     1      -1.469  15.306  22.346  0.00  0.00     0.035 C 
HETATM    3  C   UNL     1      -3.490  14.967  21.057  0.00  0.00     0.083 C 
HETATM    4  C   UNL     1      -2.974  15.728  19.999  0.00  0.00     0.069 C 
HETATM    5  C   UNL     1      -1.748  16.366  20.215  0.00  0.00     0.065 A 
HETATM    6  C   UNL     1      -0.994  16.202  21.371  0.00  0.00     0.020 A 
HETATM    7  N   UNL     1      -1.022  17.218  19.435  0.00  0.00    -0.277 N 
HETATM    8  H   UNL     1      -1.247  17.533  18.497  0.00  0.00     0.189 HD
HETATM    9  N   UNL     1       0.081  17.704  20.022  0.00  0.00    -0.178 NA
HETATM   10  C   UNL     1       0.107  17.113  21.230  0.00  0.00     0.071 A 
ENDROOT
BRANCH   1  11
HETATM   11  C   UNL     1      -3.450  14.059  23.392  0.00  0.00     0.260 C 
HETATM   12  N   UNL     1      -3.011  12.769  23.790  0.00  0.00    -0.318 N 
HETATM   13  C   UNL     1      -1.824  12.108  23.231  0.00  0.00     0.159 C 
HETATM   14  O   UNL     1      -4.374  14.671  23.929  0.00  0.00    -0.267 OA
BRANCH  12  15
HETATM   15  C   UNL     1      -3.728  11.996  24.776  0.00  0.00     0.037 A 
HETATM   16  C   UNL     1      -4.738  11.111  24.354  0.00  0.00     0.036 A 
HETATM   17  C   UNL     1      -5.488  10.348  25.261  0.00  0.00    -0.060 A 
HETATM   18  C   UNL     1      -6.618   9.493  24.771  0.00  0.00     0.048 C 
HETATM   19  C   UNL     1      -5.208  10.452  26.623  0.00  0.00     0.007 A 
HETATM   20  C   UNL     1      -4.192  11.300  27.062  0.00  0.00     0.003 A 
HETATM   21  C   UNL     1      -3.464  12.073  26.146  0.00  0.00     0.030 A 
ENDBRANCH  12  15
ENDBRANCH   1  11
BRANCH   3  22
HETATM   22  O   UNL     1      -4.726  14.417  20.822  0.00  0.00    -0.360 OA
HETATM   23  H   UNL     1      -5.300  15.125  20.449  0.00  0.00     0.217 HD
ENDBRANCH   3  22
BRANCH  10  24
HETATM   24  C   UNL     1       1.198  17.498  22.201  0.00  0.00     0.100 C 
BRANCH  24  25
HETATM   25  C   UNL     1       2.130  16.323  22.497  0.00  0.00    -0.052 A 
HETATM   26  C   UNL     1       1.905  15.411  23.538  0.00  0.00     0.007 A 
HETATM   27  C   UNL     1       2.767  14.336  23.761  0.00  0.00     0.001 A 
HETATM   28  C   UNL     1       3.931  14.203  23.007  0.00  0.00     0.007 A 
HETATM   29  C   UNL     1       4.267  15.167  22.056  0.00  0.00    -0.061 A 
HETATM   30  C   UNL     1       3.343  16.199  21.777  0.00  0.00     0.014 A 
HETATM   31  C   UNL     1       5.600  15.080  21.369  0.00  0.00     0.048 C 
ENDBRANCH  24  25
ENDBRANCH  10  24
TORSDOF 5
ENDMDL
MODEL 2
REMARK VINA RESULT:    -9.153      2.375      3.302
REMARK INTER + INTRA:         -12.936
REMARK INTER:                 -11.498
REMARK INTRA:                  -1.439
REMARK UNBOUND:                -1.375
REMARK  5 active torsions:
REMARK  status: ('A' for Active; 'I' for Inactive)
REMARK    1  A    between atoms: C_7  and  N_8 
REMARK       I    between atoms: N_8  and  C_10 
REMARK    2  A    between atoms: C_10  and  C_12 
REMARK    3  A    between atoms: C_14  and  O_15 
REMARK    4  A    between atoms: C_22  and  C_23 
REMARK    5  A    between atoms: C_23  and  C_24 
ROOT
HETATM    1  C   UNL     1      -2.834  13.337  21.777  0.00  0.00     0.066 C 
HETATM    2  C   UNL     1      -2.014  14.184  21.003  0.00  0.00     0.035 C 
HETATM    3  C   UNL     1      -4.196  13.677  21.920  0.00  0.00     0.083 C 
HETATM    4  C   UNL     1      -4.717  14.874  21.413  0.00  0.00     0.069 C 
HETATM    5  C   UNL     1      -3.812  15.757  20.815  0.00  0.00     0.065 A 
HETATM    6  C   UNL     1      -2.468  15.461  20.622  0.00  0.00     0.020 A 
HETATM    7  N   UNL     1      -3.977  17.009  20.297  0.00  0.00    -0.277 N 
HETATM    8  H   UNL     1      -4.843  17.535  20.229  0.00  0.00     0.189 HD
HETATM    9  N   UNL     1      -2.843  17.592  19.883  0.00  0.00    -0.178 NA
HETATM   10  C   UNL     1      -1.892  16.667  20.098  0.00  0.00     0.071 A 
ENDROOT
BRANCH   1  11
HETATM   11  C   UNL     1      -2.329  12.091  22.449  0.00  0.00     0.260 C 
HETATM   12  N   UNL     1      -1.362  12.159  23.485  0.00  0.00    -0.318 N 
HETATM   13  C   UNL     1      -0.875  13.421  24.058  0.00  0.00     0.159 C 
HETATM   14  O   UNL     1      -2.830  11.043  22.037  0.00  0.00    -0.267 OA
BRANCH  12  15
HETATM   15  C   UNL     1      -0.767  10.969  24.045  0.00  0.00     0.037 A 
HETATM   16  C   UNL     1      -1.164  10.538  25.324  0.00  0.00     0.036 A 
HETATM   17  C   UNL     1      -0.609   9.405  25.935  0.00  0.00    -0.060 A 
HETATM   18  C   UNL     1      -0.993   9.042  27.339  0.00  0.00     0.048 C 
HETATM   19  C   UNL     1       0.350   8.666  25.244  0.00  0.00     0.007 A 
HETATM   20  C   UNL     1       0.738   9.057  23.963  0.00  0.00     0.003 A 
HETATM   21  C   UNL     1       0.190  10.205  23.371  0.00  0.00     0.030 A 
ENDBRANCH  12  15
ENDBRANCH   1  11
BRANCH   3  22
HETATM   22  O   UNL     1      -5.111  12.874  22.557  0.00  0.00    -0.360 OA
HETATM   23  H   UNL     1      -5.337  12.138  21.943  0.00  0.00     0.217 HD
ENDBRANCH   3  22
BRANCH  10  24
HETATM   24  C   UNL     1      -0.453  17.026  19.807  0.00  0.00     0.100 C 
BRANCH  24  25
HETATM   25  C   UNL     1       0.486  16.527  20.905  0.00  0.00    -0.052 A 
HETATM   26  C   UNL     1       0.452  17.011  22.220  0.00  0.00     0.007 A 
HETATM   27  C   UNL     1       1.310  16.512  23.201  0.00  0.00     0.001 A 
HETATM   28  C   UNL     1       2.292  15.583  22.866  0.00  0.00     0.007 A 
HETATM   29  C   UNL     1       2.454  15.179  21.540  0.00  0.00    -0.061 A 
HETATM   30  C   UNL     1       1.523  15.621  20.574  0.00  0.00     0.014 A 
HETATM   31  C   UNL     1       3.617  14.296  21.184  0.00  0.00     0.048 C 
ENDBRANCH  24  25
ENDBRANCH  10  24
TORSDOF 5
ENDMDL
MODEL 3
REMARK VINA RESULT:    -8.930      1.480      2.281
REMARK INTER + INTRA:         -12.655
REMARK INTER:                 -11.463
REMARK INTRA:                  -1.192
REMARK UNBOUND:                -1.375
REMARK  5 active torsions:
REMARK  status: ('A' for Active; 'I' for Inactive)
REMARK    1  A    between atoms: C_7  and  N_8 
REMARK       I    between atoms: N_8  and  C_10 
REMARK    2  A    between atoms: C_10  and  C_12 
REMARK    3  A    between atoms: C_14  and  O_15 
REMARK    4  A    between atoms: C_22  and  C_23 
REMARK    5  A    between atoms: C_23  and  C_24 
ROOT
HETATM    1  C   UNL     1      -3.048  14.033  21.857  0.00  0.00     0.066 C 
HETATM    2  C   UNL     1      -1.832  14.738  21.742  0.00  0.00     0.035 C 
HETATM    3  C   UNL     1      -4.055  14.282  20.900  0.00  0.00     0.083 C 
HETATM    4  C   UNL     1      -3.918  15.278  19.925  0.00  0.00     0.069 C 
HETATM    5  C   UNL     1      -2.765  16.067  19.980  0.00  0.00     0.065 A 
HETATM    6  C   UNL     1      -1.730  15.847  20.881  0.00  0.00     0.020 A 
HETATM    7  N   UNL     1      -2.367  17.143  19.240  0.00  0.00    -0.277 N 
HETATM    8  H   UNL     1      -2.859  17.564  18.458  0.00  0.00     0.189 HD
HETATM    9  N   UNL     1      -1.220  17.704  19.648  0.00  0.00    -0.178 NA
HETATM   10  C   UNL     1      -0.819  16.938  20.678  0.00  0.00     0.071 A 
ENDROOT
BRANCH   1  11
HETATM   11  C   UNL     1      -3.318  13.027  22.940  0.00  0.00     0.260 C 
HETATM   12  N   UNL     1      -3.087  13.342  24.305  0.00  0.00    -0.318 N 
HETATM   13  C   UNL     1      -2.690  14.677  24.773  0.00  0.00     0.159 C 
HETATM   14  O   UNL     1      -3.759  11.947  22.544  0.00  0.00    -0.267 OA
BRANCH  12  15
HETATM   15  C   UNL     1      -3.209  12.346  25.343  0.00  0.00     0.037 A 
HETATM   16  C   UNL     1      -2.062  11.652  25.768  0.00  0.00     0.036 A 
HETATM   17  C   UNL     1      -2.114  10.658  26.755  0.00  0.00    -0.060 A 
HETATM   18  C   UNL     1      -0.882   9.878  27.105  0.00  0.00     0.048 C 
HETATM   19  C   UNL     1      -3.339  10.363  27.352  0.00  0.00     0.007 A 
HETATM   20  C   UNL     1      -4.485  11.058  26.968  0.00  0.00     0.003 A 
HETATM   21  C   UNL     1      -4.423  12.037  25.964  0.00  0.00     0.030 A 
ENDBRANCH  12  15
ENDBRANCH   1  11
BRANCH   3  22
HETATM   22  O   UNL     1      -5.233  13.580  20.846  0.00  0.00    -0.360 OA
HETATM   23  H   UNL     1      -5.875  14.031  21.442  0.00  0.00     0.217 HD
ENDBRANCH   3  22
BRANCH  10  24
HETATM   24  C   UNL     1       0.426  17.336  21.435  0.00  0.00     0.100 C 
BRANCH  24  25
HETATM   25  C   UNL     1       1.403  16.168  21.567  0.00  0.00    -0.052 A 
HETATM   26  C   UNL     1       1.947  15.497  20.464  0.00  0.00     0.007 A 
HETATM   27  C   UNL     1       2.856  14.450  20.625  0.00  0.00     0.001 A 
HETATM   28  C   UNL     1       3.168  13.983  21.900  0.00  0.00     0.007 A 
HETATM   29  C   UNL     1       2.540  14.529  23.021  0.00  0.00    -0.061 A 
HETATM   30  C   UNL     1       1.693  15.647  22.851  0.00  0.00     0.014 A 
HETATM   31  C   UNL     1       2.780  13.905  24.367  0.00  0.00     0.048 C 
ENDBRANCH  24  25
ENDBRANCH  10  24
TORSDOF 5
ENDMDL
MODEL 4
REMARK VINA RESULT:    -8.790      2.733      7.802
REMARK INTER + INTRA:         -12.477
REMARK INTER:                 -11.329
REMARK INTRA:                  -1.147
REMARK UNBOUND:                -1.375
REMARK  5 active torsions:
REMARK  status: ('A' for Active; 'I' for Inactive)
REMARK    1  A    between atoms: C_7  and  N_8 
REMARK       I    between atoms: N_8  and  C_10 
REMARK    2  A    between atoms: C_10  and  C_12 
REMARK    3  A    between atoms: C_14  and  O_15 
REMARK    4  A    between atoms: C_22  and  C_23 
REMARK    5  A    between atoms: C_23  and  C_24 
ROOT
HETATM    1  C   UNL     1      -1.552  14.700  23.490  0.00  0.00     0.066 C 
HETATM    2  C   UNL     1      -1.561  14.079  24.756  0.00  0.00     0.035 C 
HETATM    3  C   UNL     1      -2.781  14.854  22.814  0.00  0.00     0.083 C 
HETATM    4  C   UNL     1      -3.972  14.312  23.313  0.00  0.00     0.069 C 
HETATM    5  C   UNL     1      -3.882  13.548  24.482  0.00  0.00     0.065 A 
HETATM    6  C   UNL     1      -2.704  13.390  25.202  0.00  0.00     0.020 A 
HETATM    7  N   UNL     1      -4.820  12.839  25.174  0.00  0.00    -0.277 N 
HETATM    8  H   UNL     1      -5.809  12.760  24.961  0.00  0.00     0.189 HD
HETATM    9  N   UNL     1      -4.336  12.149  26.216  0.00  0.00    -0.178 NA
HETATM   10  C   UNL     1      -3.026  12.451  26.240  0.00  0.00     0.071 A 
ENDROOT
BRANCH   1  11
HETATM   11  C   UNL     1      -0.301  15.211  22.832  0.00  0.00     0.260 C 
HETATM   12  N   UNL     1       0.568  14.333  22.132  0.00  0.00    -0.318 N 
HETATM   13  C   UNL     1       0.268  12.915  21.894  0.00  0.00     0.159 C 
HETATM   14  O   UNL     1      -0.117  16.424  22.942  0.00  0.00    -0.267 OA
BRANCH  12  15
HETATM   15  C   UNL     1       1.839  14.780  21.614  0.00  0.00     0.037 A 
HETATM   16  C   UNL     1       3.014  14.488  22.331  0.00  0.00     0.036 A 
HETATM   17  C   UNL     1       4.278  14.912  21.896  0.00  0.00    -0.060 A 
HETATM   18  C   UNL     1       5.490  14.661  22.744  0.00  0.00     0.048 C 
HETATM   19  C   UNL     1       4.377  15.626  20.702  0.00  0.00     0.007 A 
HETATM   20  C   UNL     1       3.230  15.902  19.960  0.00  0.00     0.003 A 
HETATM   21  C   UNL     1       1.969  15.490  20.416  0.00  0.00     0.030 A 
ENDBRANCH  12  15
ENDBRANCH   1  11
BRANCH   3  22
HETATM   22  O   UNL     1      -2.910  15.537  21.630  0.00  0.00    -0.360 OA
HETATM   23  H   UNL     1      -2.728  16.487  21.814  0.00  0.00     0.217 HD
ENDBRANCH   3  22
BRANCH  10  24
HETATM   24  C   UNL     1      -2.145  11.774  27.264  0.00  0.00     0.100 C 
BRANCH  24  25
HETATM   25  C   UNL     1      -1.501  10.506  26.704  0.00  0.00    -0.052 A 
HETATM   26  C   UNL     1      -1.260  10.309  25.337  0.00  0.00     0.007 A 
HETATM   27  C   UNL     1      -0.648   9.146  24.867  0.00  0.00     0.001 A 
HETATM   28  C   UNL     1      -0.350   8.107  25.746  0.00  0.00     0.007 A 
HETATM   29  C   UNL     1      -0.703   8.202  27.092  0.00  0.00    -0.061 A 
HETATM   30  C   UNL     1      -1.238   9.418  27.572  0.00  0.00     0.014 A 
HETATM   31  C   UNL     1      -0.509   7.007  27.983  0.00  0.00     0.048 C 
ENDBRANCH  24  25
ENDBRANCH  10  24
TORSDOF 5
ENDMDL
MODEL 5
REMARK VINA RESULT:    -8.747      3.052      8.007
REMARK INTER + INTRA:         -12.423
REMARK INTER:                 -11.152
REMARK INTRA:                  -1.272
REMARK UNBOUND:                -1.375
REMARK  5 active torsions:
REMARK  status: ('A' for Active; 'I' for Inactive)
REMARK    1  A    between atoms: C_7  and  N_8 
REMARK       I    between atoms: N_8  and  C_10 
REMARK    2  A    between atoms: C_10  and  C_12 
REMARK    3  A    between atoms: C_14  and  O_15 
REMARK    4  A    between atoms: C_22  and  C_23 
REMARK    5  A    between atoms: C_23  and  C_24 
ROOT
HETATM    1  C   UNL     1      -0.397  12.169  22.279  0.00  0.00     0.066 C 
HETATM    2  C   UNL     1      -1.649  12.813  22.199  0.00  0.00     0.035 C 
HETATM    3  C   UNL     1      -0.332  10.918  22.931  0.00  0.00     0.083 C 
HETATM    4  C   UNL     1      -1.441  10.368  23.586  0.00  0.00     0.069 C 
HETATM    5  C   UNL     1      -2.605  11.143  23.627  0.00  0.00     0.065 A 
HETATM    6  C   UNL     1      -2.732  12.365  22.978  0.00  0.00     0.020 A 
HETATM    7  N   UNL     1      -3.810  10.935  24.232  0.00  0.00    -0.277 N 
HETATM    8  H   UNL     1      -4.095  10.121  24.767  0.00  0.00     0.189 HD
HETATM    9  N   UNL     1      -4.669  11.959  24.123  0.00  0.00    -0.178 NA
HETATM   10  C   UNL     1      -4.018  12.867  23.376  0.00  0.00     0.071 A 
ENDROOT
BRANCH   1  11
HETATM   11  C   UNL     1       0.865  12.744  21.700  0.00  0.00     0.260 C 
HETATM   12  N   UNL     1       1.635  13.692  22.422  0.00  0.00    -0.318 N 
HETATM   13  C   UNL     1       1.341  14.092  23.805  0.00  0.00     0.159 C 
HETATM   14  O   UNL     1       1.163  12.316  20.584  0.00  0.00    -0.267 OA
BRANCH  12  15
HETATM   15  C   UNL     1       2.771  14.356  21.827  0.00  0.00     0.037 A 
HETATM   16  C   UNL     1       4.027  14.262  22.454  0.00  0.00     0.036 A 
HETATM   17  C   UNL     1       5.166  14.901  21.942  0.00  0.00    -0.060 A 
HETATM   18  C   UNL     1       6.460  14.852  22.698  0.00  0.00     0.048 C 
HETATM   19  C   UNL     1       5.055  15.634  20.761  0.00  0.00     0.007 A 
HETATM   20  C   UNL     1       3.826  15.716  20.107  0.00  0.00     0.003 A 
HETATM   21  C   UNL     1       2.691  15.090  20.640  0.00  0.00     0.030 A 
ENDBRANCH  12  15
ENDBRANCH   1  11
BRANCH   3  22
HETATM   22  O   UNL     1       0.804  10.150  22.976  0.00  0.00    -0.360 OA
HETATM   23  H   UNL     1       0.566   9.292  23.397  0.00  0.00     0.217 HD
ENDBRANCH   3  22
BRANCH  10  24
HETATM   24  C   UNL     1      -4.679  14.200  23.115  0.00  0.00     0.100 C 
BRANCH  24  25
HETATM   25  C   UNL     1      -4.463  14.664  21.675  0.00  0.00    -0.052 A 
HETATM   26  C   UNL     1      -5.004  13.997  20.567  0.00  0.00     0.007 A 
HETATM   27  C   UNL     1      -4.805  14.466  19.268  0.00  0.00     0.001 A 
HETATM   28  C   UNL     1      -3.975  15.562  19.038  0.00  0.00     0.007 A 
HETATM   29  C   UNL     1      -3.302  16.169  20.099  0.00  0.00    -0.061 A 
HETATM   30  C   UNL     1      -3.583  15.743  21.417  0.00  0.00     0.014 A 
HETATM   31  C   UNL     1      -2.298  17.247  19.805  0.00  0.00     0.048 C 
ENDBRANCH  24  25
ENDBRANCH  10  24
TORSDOF 5
ENDMDL
MODEL 6
REMARK VINA RESULT:    -8.482      4.024      6.921
REMARK INTER + INTRA:         -12.088
REMARK INTER:                 -11.039
REMARK INTRA:                  -1.049
REMARK UNBOUND:                -1.375
REMARK  5 active torsions:
REMARK  status: ('A' for Active; 'I' for Inactive)
REMARK    1  A    between atoms: C_7  and  N_8 
REMARK       I    between atoms: N_8  and  C_10 
REMARK    2  A    between atoms: C_10  and  C_12 
REMARK    3  A    between atoms: C_14  and  O_15 
REMARK    4  A    between atoms: C_22  and  C_23 
REMARK    5  A    between atoms: C_23  and  C_24 
ROOT
HETATM    1  C   UNL     1      -1.765  10.587  24.888  0.00  0.00     0.066 C 
HETATM    2  C   UNL     1      -2.251  11.061  23.652  0.00  0.00     0.035 C 
HETATM    3  C   UNL     1      -2.328  11.114  26.071  0.00  0.00     0.083 C 
HETATM    4  C   UNL     1      -3.260  12.159  26.045  0.00  0.00     0.069 C 
HETATM    5  C   UNL     1      -3.561  12.710  24.795  0.00  0.00     0.065 A 
HETATM    6  C   UNL     1      -3.060  12.212  23.598  0.00  0.00     0.020 A 
HETATM    7  N   UNL     1      -4.354  13.761  24.437  0.00  0.00    -0.277 N 
HETATM    8  H   UNL     1      -4.917  14.342  25.051  0.00  0.00     0.189 HD
HETATM    9  N   UNL     1      -4.329  14.055  23.129  0.00  0.00    -0.178 NA
HETATM   10  C   UNL     1      -3.515  13.129  22.592  0.00  0.00     0.071 A 
ENDROOT
BRANCH   1  11
HETATM   11  C   UNL     1      -0.687   9.546  25.006  0.00  0.00     0.260 C 
HETATM   12  N   UNL     1       0.675   9.876  24.781  0.00  0.00    -0.318 N 
HETATM   13  C   UNL     1       1.149  11.245  24.540  0.00  0.00     0.159 C 
HETATM   14  O   UNL     1      -1.085   8.424  25.321  0.00  0.00    -0.267 OA
BRANCH  12  15
HETATM   15  C   UNL     1       1.704   8.864  24.755  0.00  0.00     0.037 A 
HETATM   16  C   UNL     1       2.434   8.596  25.928  0.00  0.00     0.036 A 
HETATM   17  C   UNL     1       3.462   7.643  25.965  0.00  0.00    -0.060 A 
HETATM   18  C   UNL     1       4.277   7.463  27.211  0.00  0.00     0.048 C 
HETATM   19  C   UNL     1       3.755   6.920  24.809  0.00  0.00     0.007 A 
HETATM   20  C   UNL     1       3.024   7.147  23.643  0.00  0.00     0.003 A 
HETATM   21  C   UNL     1       2.013   8.118  23.614  0.00  0.00     0.030 A 
ENDBRANCH  12  15
ENDBRANCH   1  11
BRANCH   3  22
HETATM   22  O   UNL     1      -2.014  10.653  27.325  0.00  0.00    -0.360 OA
HETATM   23  H   UNL     1      -1.796   9.696  27.244  0.00  0.00     0.217 HD
ENDBRANCH   3  22
BRANCH  10  24
HETATM   24  C   UNL     1      -3.198  13.211  21.117  0.00  0.00     0.100 C 
BRANCH  24  25
HETATM   25  C   UNL     1      -2.952  14.653  20.673  0.00  0.00    -0.052 A 
HETATM   26  C   UNL     1      -3.838  15.362  19.851  0.00  0.00     0.007 A 
HETATM   27  C   UNL     1      -3.591  16.686  19.486  0.00  0.00     0.001 A 
HETATM   28  C   UNL     1      -2.398  17.304  19.857  0.00  0.00     0.007 A 
HETATM   29  C   UNL     1      -1.424  16.589  20.555  0.00  0.00    -0.061 A 
HETATM   30  C   UNL     1      -1.724  15.281  20.996  0.00  0.00     0.014 A 
HETATM   31  C   UNL     1      -0.089  17.230  20.807  0.00  0.00     0.048 C 
ENDBRANCH  24  25
ENDBRANCH  10  24
TORSDOF 5
ENDMDL
MODEL 7
REMARK VINA RESULT:    -8.456      2.066      4.502
REMARK INTER + INTRA:         -12.055
REMARK INTER:                 -11.449
REMARK INTRA:                  -0.606
REMARK UNBOUND:                -1.375
REMARK  5 active torsions:
REMARK  status: ('A' for Active; 'I' for Inactive)
REMARK    1  A    between atoms: C_7  and  N_8 
REMARK       I    between atoms: N_8  and  C_10 
REMARK    2  A    between atoms: C_10  and  C_12 
REMARK    3  A    between atoms: C_14  and  O_15 
REMARK    4  A    between atoms: C_22  and  C_23 
REMARK    5  A    between atoms: C_23  and  C_24 
ROOT
HETATM    1  C   UNL     1      -0.216  15.434  23.957  0.00  0.00     0.066 C 
HETATM    2  C   UNL     1      -0.655  16.212  22.866  0.00  0.00     0.035 C 
HETATM    3  C   UNL     1       1.161  15.432  24.263  0.00  0.00     0.083 C 
HETATM    4  C   UNL     1       2.100  16.083  23.452  0.00  0.00     0.069 C 
HETATM    5  C   UNL     1       1.621  16.682  22.282  0.00  0.00     0.065 A 
HETATM    6  C   UNL     1       0.274  16.739  21.948  0.00  0.00     0.020 A 
HETATM    7  N   UNL     1       2.266  17.320  21.263  0.00  0.00    -0.277 N 
HETATM    8  H   UNL     1       3.262  17.504  21.187  0.00  0.00     0.189 HD
HETATM    9  N   UNL     1       1.472  17.691  20.249  0.00  0.00    -0.178 NA
HETATM   10  C   UNL     1       0.239  17.320  20.635  0.00  0.00     0.071 A 
ENDROOT
BRANCH   1  11
HETATM   11  C   UNL     1      -1.144  14.617  24.812  0.00  0.00     0.260 C 
HETATM   12  N   UNL     1      -1.269  13.216  24.622  0.00  0.00    -0.318 N 
HETATM   13  C   UNL     1      -0.440  12.447  23.684  0.00  0.00     0.159 C 
HETATM   14  O   UNL     1      -1.752  15.256  25.673  0.00  0.00    -0.267 OA
BRANCH  12  15
HETATM   15  C   UNL     1      -2.253  12.440  25.339  0.00  0.00     0.037 A 
HETATM   16  C   UNL     1      -3.296  11.823  24.622  0.00  0.00     0.036 A 
HETATM   17  C   UNL     1      -4.297  11.074  25.259  0.00  0.00    -0.060 A 
HETATM   18  C   UNL     1      -5.440  10.518  24.464  0.00  0.00     0.048 C 
HETATM   19  C   UNL     1      -4.244  10.916  26.643  0.00  0.00     0.007 A 
HETATM   20  C   UNL     1      -3.205  11.494  27.370  0.00  0.00     0.003 A 
HETATM   21  C   UNL     1      -2.221  12.258  26.724  0.00  0.00     0.030 A 
ENDBRANCH  12  15
ENDBRANCH   1  11
BRANCH   3  22
HETATM   22  O   UNL     1       1.688  14.803  25.364  0.00  0.00    -0.360 OA
HETATM   23  H   UNL     1       1.601  13.832  25.220  0.00  0.00     0.217 HD
ENDBRANCH   3  22
BRANCH  10  24
HETATM   24  C   UNL     1      -0.913  17.524  19.679  0.00  0.00     0.100 C 
BRANCH  24  25
HETATM   25  C   UNL     1      -2.086  16.599  20.002  0.00  0.00    -0.052 A 
HETATM   26  C   UNL     1      -3.385  17.065  20.245  0.00  0.00     0.007 A 
HETATM   27  C   UNL     1      -4.435  16.186  20.513  0.00  0.00     0.001 A 
HETATM   28  C   UNL     1      -4.189  14.821  20.642  0.00  0.00     0.007 A 
HETATM   29  C   UNL     1      -2.887  14.329  20.550  0.00  0.00    -0.061 A 
HETATM   30  C   UNL     1      -1.848  15.215  20.189  0.00  0.00     0.014 A 
HETATM   31  C   UNL     1      -2.633  12.877  20.846  0.00  0.00     0.048 C 
ENDBRANCH  24  25
ENDBRANCH  10  24
TORSDOF 5
ENDMDL
MODEL 8
REMARK VINA RESULT:    -8.426      3.969      7.764
REMARK INTER + INTRA:         -12.018
REMARK INTER:                 -11.392
REMARK INTRA:                  -0.626
REMARK UNBOUND:                -1.375
REMARK  5 active torsions:
REMARK  status: ('A' for Active; 'I' for Inactive)
REMARK    1  A    between atoms: C_7  and  N_8 
REMARK       I    between atoms: N_8  and  C_10 
REMARK    2  A    between atoms: C_10  and  C_12 
REMARK    3  A    between atoms: C_14  and  O_15 
REMARK    4  A    between atoms: C_22  and  C_23 
REMARK    5  A    between atoms: C_23  and  C_24 
ROOT
HETATM    1  C   UNL     1      -2.474  12.212  24.695  0.00  0.00     0.066 C 
HETATM    2  C   UNL     1      -1.224  11.645  25.017  0.00  0.00     0.035 C 
HETATM    3  C   UNL     1      -3.525  12.080  25.627  0.00  0.00     0.083 C 
HETATM    4  C   UNL     1      -3.389  11.314  26.792  0.00  0.00     0.069 C 
HETATM    5  C   UNL     1      -2.183  10.625  26.962  0.00  0.00     0.065 A 
HETATM    6  C   UNL     1      -1.106  10.743  26.092  0.00  0.00     0.020 A 
HETATM    7  N   UNL     1      -1.766   9.756  27.927  0.00  0.00    -0.277 N 
HETATM    8  H   UNL     1      -2.280   9.462  28.752  0.00  0.00     0.189 HD
HETATM    9  N   UNL     1      -0.557   9.219  27.705  0.00  0.00    -0.178 NA
HETATM   10  C   UNL     1      -0.139   9.792  26.563  0.00  0.00     0.071 A 
ENDROOT
BRANCH   1  11
HETATM   11  C   UNL     1      -2.737  12.956  23.415  0.00  0.00     0.260 C 
HETATM   12  N   UNL     1      -2.380  14.322  23.277  0.00  0.00    -0.318 N 
HETATM   13  C   UNL     1      -1.637  15.074  24.297  0.00  0.00     0.159 C 
HETATM   14  O   UNL     1      -3.259  12.283  22.525  0.00  0.00    -0.267 OA
BRANCH  12  15
HETATM   15  C   UNL     1      -2.749  15.086  22.109  0.00  0.00     0.037 A 
HETATM   16  C   UNL     1      -1.759  15.818  21.427  0.00  0.00     0.036 A 
HETATM   17  C   UNL     1      -2.053  16.599  20.299  0.00  0.00    -0.060 A 
HETATM   18  C   UNL     1      -0.984  17.438  19.665  0.00  0.00     0.048 C 
HETATM   19  C   UNL     1      -3.364  16.633  19.825  0.00  0.00     0.007 A 
HETATM   20  C   UNL     1      -4.355  15.892  20.467  0.00  0.00     0.003 A 
HETATM   21  C   UNL     1      -4.052  15.132  21.606  0.00  0.00     0.030 A 
ENDBRANCH  12  15
ENDBRANCH   1  11
BRANCH   3  22
HETATM   22  O   UNL     1      -4.750  12.681  25.473  0.00  0.00    -0.360 OA
HETATM   23  H   UNL     1      -5.402  11.976  25.255  0.00  0.00     0.217 HD
ENDBRANCH   3  22
BRANCH  10  24
HETATM   24  C   UNL     1       1.179   9.351  25.971  0.00  0.00     0.100 C 
BRANCH  24  25
HETATM   25  C   UNL     1       1.036   8.051  25.181  0.00  0.00    -0.052 A 
HETATM   26  C   UNL     1      -0.164   7.331  25.103  0.00  0.00     0.007 A 
HETATM   27  C   UNL     1      -0.261   6.159  24.351  0.00  0.00     0.001 A 
HETATM   28  C   UNL     1       0.869   5.625  23.736  0.00  0.00     0.007 A 
HETATM   29  C   UNL     1       2.114   6.232  23.906  0.00  0.00    -0.061 A 
HETATM   30  C   UNL     1       2.183   7.465  24.593  0.00  0.00     0.014 A 
HETATM   31  C   UNL     1       3.338   5.551  23.361  0.00  0.00     0.048 C 
ENDBRANCH  24  25
ENDBRANCH  10  24
TORSDOF 5
ENDMDL
MODEL 9
REMARK VINA RESULT:    -8.375      2.985      3.799
REMARK INTER + INTRA:         -11.953
REMARK INTER:                 -10.578
REMARK INTRA:                  -1.375
REMARK UNBOUND:                -1.375
REMARK  5 active torsions:
REMARK  status: ('A' for Active; 'I' for Inactive)
REMARK    1  A    between atoms: C_7  and  N_8 
REMARK       I    between atoms: N_8  and  C_10 
REMARK    2  A    between atoms: C_10  and  C_12 
REMARK    3  A    between atoms: C_14  and  O_15 
REMARK    4  A    between atoms: C_22  and  C_23 
REMARK    5  A    between atoms: C_23  and  C_24 
ROOT
HETATM    1  C   UNL     1      -0.986  12.647  21.936  0.00  0.00     0.066 C 
HETATM    2  C   UNL     1      -0.337  13.884  21.740  0.00  0.00     0.035 C 
HETATM    3  C   UNL     1      -2.255  12.460  21.349  0.00  0.00     0.083 C 
HETATM    4  C   UNL     1      -2.922  13.496  20.684  0.00  0.00     0.069 C 
HETATM    5  C   UNL     1      -2.305  14.752  20.684  0.00  0.00     0.065 A 
HETATM    6  C   UNL     1      -1.045  14.984  21.220  0.00  0.00     0.020 A 
HETATM    7  N   UNL     1      -2.713  15.960  20.199  0.00  0.00    -0.277 N 
HETATM    8  H   UNL     1      -3.575  16.163  19.701  0.00  0.00     0.189 HD
HETATM    9  N   UNL     1      -1.879  16.975  20.466  0.00  0.00    -0.178 NA
HETATM   10  C   UNL     1      -0.852  16.404  21.120  0.00  0.00     0.071 A 
ENDROOT
BRANCH   1  11
HETATM   11  C   UNL     1      -0.387  11.520  22.730  0.00  0.00     0.260 C 
HETATM   12  N   UNL     1      -0.396  11.541  24.150  0.00  0.00    -0.318 N 
HETATM   13  C   UNL     1      -1.076  12.575  24.941  0.00  0.00     0.159 C 
HETATM   14  O   UNL     1       0.080  10.602  22.055  0.00  0.00    -0.267 OA
BRANCH  12  15
HETATM   15  C   UNL     1       0.293  10.538  24.926  0.00  0.00     0.037 A 
HETATM   16  C   UNL     1      -0.452   9.523  25.555  0.00  0.00     0.036 A 
HETATM   17  C   UNL     1       0.152   8.532  26.342  0.00  0.00    -0.060 A 
HETATM   18  C   UNL     1      -0.693   7.531  27.071  0.00  0.00     0.048 C 
HETATM   19  C   UNL     1       1.539   8.538  26.487  0.00  0.00     0.007 A 
HETATM   20  C   UNL     1       2.301   9.515  25.849  0.00  0.00     0.003 A 
HETATM   21  C   UNL     1       1.682  10.514  25.081  0.00  0.00     0.030 A 
ENDBRANCH  12  15
ENDBRANCH   1  11
BRANCH   3  22
HETATM   22  O   UNL     1      -2.931  11.265  21.380  0.00  0.00    -0.360 OA
HETATM   23  H   UNL     1      -2.798  10.872  22.273  0.00  0.00     0.217 HD
ENDBRANCH   3  22
BRANCH  10  24
HETATM   24  C   UNL     1       0.255  17.287  21.644  0.00  0.00     0.100 C 
BRANCH  24  25
HETATM   25  C   UNL     1       1.634  16.688  21.367  0.00  0.00    -0.052 A 
HETATM   26  C   UNL     1       2.214  16.662  20.092  0.00  0.00     0.007 A 
HETATM   27  C   UNL     1       3.487  16.128  19.883  0.00  0.00     0.001 A 
HETATM   28  C   UNL     1       4.170  15.515  20.932  0.00  0.00     0.007 A 
HETATM   29  C   UNL     1       3.569  15.392  22.185  0.00  0.00    -0.061 A 
HETATM   30  C   UNL     1       2.321  16.016  22.407  0.00  0.00     0.014 A 
HETATM   31  C   UNL     1       4.264  14.593  23.252  0.00  0.00     0.048 C 
ENDBRANCH  24  25
ENDBRANCH  10  24
TORSDOF 5
ENDMDL
