MODEL 1
REMARK VINA RESULT:    -7.033      0.000      0.000
REMARK INTER + INTRA:          -9.397
REMARK INTER:                  -8.358
REMARK INTRA:                  -1.039
REMARK UNBOUND:                -1.130
REMARK  4 active torsions:
REMARK  status: ('A' for Active; 'I' for Inactive)
REMARK    1  A    between atoms: O_1  and  C_2 
REMARK    2  A    between atoms: C_4  and  O_5 
REMARK    3  A    between atoms: C_6  and  C_9 
REMARK    4  A    between atoms: N_15  and  C_16 
ROOT
HETATM    1  C   UNL     1      -2.027  11.639  22.731  0.00  0.00     0.172 A 
HETATM    2  N   UNL     1      -2.525  10.956  21.733  0.00  0.00    -0.151 NA
HETATM    3  N   UNL     1      -1.697  11.204  20.680  0.00  0.00    -0.226 N 
HETATM    4  H   UNL     1      -1.749  10.682  19.815  0.00  0.00     0.194 HD
HETATM    5  C   UNL     1      -0.631  12.003  21.068  0.00  0.00     0.349 A 
HETATM    6  O   UNL     1       0.358  12.227  20.391  0.00  0.00    -0.245 OA
HETATM    7  N   UNL     1      -0.904  12.364  22.380  0.00  0.00    -0.243 N 
ENDROOT
BRANCH   1   8
HETATM    8  C   UNL     1      -2.647  11.618  24.093  0.00  0.00     0.045 C 
HETATM    9  C   UNL     1      -3.984  12.021  24.275  0.00  0.00     0.082 C 
HETATM   10  C   UNL     1      -4.624  11.880  25.512  0.00  0.00     0.074 C 
HETATM   11  C   UNL     1      -3.929  11.325  26.576  0.00  0.00     0.068 C 
HETATM   12  C   UNL     1      -2.587  11.000  26.449  0.00  0.00     0.037 C 
HETATM   13  C   UNL     1      -1.938  11.191  25.224  0.00  0.00     0.021 C 
BRANCH   9  14
HETATM   14  O   UNL     1      -4.722  12.526  23.240  0.00  0.00    -0.360 OA
HETATM   15  H   UNL     1      -5.668  12.426  23.435  0.00  0.00     0.217 HD
ENDBRANCH   9  14
BRANCH  11  16
HETATM   16  O   UNL     1      -4.534  11.076  27.771  0.00  0.00    -0.361 OA
HETATM   17  H   UNL     1      -3.940  11.346  28.491  0.00  0.00     0.217 HD
ENDBRANCH  11  16
ENDBRANCH   1   8
BRANCH   7  18
HETATM   18  C   UNL     1      -0.043  13.187  23.136  0.00  0.00     0.067 A 
HETATM   19  C   UNL     1      -0.434  14.482  23.539  0.00  0.00     0.061 A 
HETATM   20 CL   UNL     1      -1.985  15.160  23.171  0.00  0.00    -0.082 Cl
HETATM   21  C   UNL     1       0.377  15.230  24.401  0.00  0.00     0.026 A 
HETATM   22  C   UNL     1       1.579  14.706  24.870  0.00  0.00     0.002 A 
HETATM   23  C   UNL     1       1.996  13.447  24.447  0.00  0.00     0.002 A 
HETATM   24  C   UNL     1       1.201  12.701  23.570  0.00  0.00     0.032 A 
ENDBRANCH   7  18
TORSDOF 4
ENDMDL
MODEL 2
REMARK VINA RESULT:    -6.758      2.913      4.766
REMARK INTER + INTRA:          -9.074
REMARK INTER:                  -7.965
REMARK INTRA:                  -1.109
REMARK UNBOUND:                -1.130
REMARK  4 active torsions:
REMARK  status: ('A' for Active; 'I' for Inactive)
REMARK    1  A    between atoms: O_1  and  C_2 
REMARK    2  A    between atoms: C_4  and  O_5 
REMARK    3  A    between atoms: C_6  and  C_9 
REMARK    4  A    between atoms: N_15  and  C_16 
ROOT
HETATM    1  C   UNL     1      -3.838  12.296  23.859  0.00  0.00     0.172 A 
HETATM    2  N   UNL     1      -4.747  11.364  23.985  0.00  0.00    -0.151 NA
HETATM    3  N   UNL     1      -4.514  10.798  25.201  0.00  0.00    -0.226 N 
HETATM    4  H   UNL     1      -5.163  10.152  25.631  0.00  0.00     0.194 HD
HETATM    5  C   UNL     1      -3.479  11.448  25.858  0.00  0.00     0.349 A 
HETATM    6  O   UNL     1      -3.182  11.283  27.029  0.00  0.00    -0.245 OA
HETATM    7  N   UNL     1      -2.979  12.359  24.939  0.00  0.00    -0.243 N 
ENDROOT
BRANCH   1   8
HETATM    8  C   UNL     1      -3.764  13.173  22.648  0.00  0.00     0.045 C 
HETATM    9  C   UNL     1      -3.305  12.658  21.420  0.00  0.00     0.082 C 
HETATM   10  C   UNL     1      -3.357  13.420  20.247  0.00  0.00     0.074 C 
HETATM   11  C   UNL     1      -3.880  14.704  20.295  0.00  0.00     0.068 C 
HETATM   12  C   UNL     1      -4.258  15.267  21.505  0.00  0.00     0.037 C 
HETATM   13  C   UNL     1      -4.156  14.519  22.682  0.00  0.00     0.021 C 
BRANCH   9  14
HETATM   14  O   UNL     1      -2.830  11.380  21.319  0.00  0.00    -0.360 OA
HETATM   15  H   UNL     1      -3.574  10.762  21.235  0.00  0.00     0.217 HD
ENDBRANCH   9  14
BRANCH  11  16
HETATM   16  O   UNL     1      -4.043  15.450  19.166  0.00  0.00    -0.361 OA
HETATM   17  H   UNL     1      -3.173  15.753  18.857  0.00  0.00     0.217 HD
ENDBRANCH  11  16
ENDBRANCH   1   8
BRANCH   7  18
HETATM   18  C   UNL     1      -1.903  13.223  25.235  0.00  0.00     0.067 A 
HETATM   19  C   UNL     1      -0.629  13.029  24.659  0.00  0.00     0.061 A 
HETATM   20 CL   UNL     1      -0.278  11.753  23.541  0.00  0.00    -0.082 Cl
HETATM   21  C   UNL     1       0.388  13.972  24.857  0.00  0.00     0.026 A 
HETATM   22  C   UNL     1       0.154  15.110  25.624  0.00  0.00     0.002 A 
HETATM   23  C   UNL     1      -1.086  15.292  26.231  0.00  0.00     0.002 A 
HETATM   24  C   UNL     1      -2.101  14.345  26.055  0.00  0.00     0.032 A 
ENDBRANCH   7  18
TORSDOF 4
ENDMDL
MODEL 3
REMARK VINA RESULT:    -6.608      2.666      3.077
REMARK INTER + INTRA:          -8.898
REMARK INTER:                  -7.756
REMARK INTRA:                  -1.142
REMARK UNBOUND:                -1.130
REMARK  4 active torsions:
REMARK  status: ('A' for Active; 'I' for Inactive)
REMARK    1  A    between atoms: O_1  and  C_2 
REMARK    2  A    between atoms: C_4  and  O_5 
REMARK    3  A    between atoms: C_6  and  C_9 
REMARK    4  A    between atoms: N_15  and  C_16 
ROOT
HETATM    1  C   UNL     1      -3.757  14.242  23.014  0.00  0.00     0.172 A 
HETATM    2  N   UNL     1      -4.926  14.680  22.623  0.00  0.00    -0.151 NA
HETATM    3  N   UNL     1      -4.719  15.195  21.380  0.00  0.00    -0.226 N 
HETATM    4  H   UNL     1      -5.480  15.465  20.771  0.00  0.00     0.194 HD
HETATM    5  C   UNL     1      -3.404  15.003  20.979  0.00  0.00     0.349 A 
HETATM    6  O   UNL     1      -2.984  15.187  19.849  0.00  0.00    -0.245 OA
HETATM    7  N   UNL     1      -2.759  14.470  22.086  0.00  0.00    -0.243 N 
ENDROOT
BRANCH   1   8
HETATM    8  C   UNL     1      -3.562  13.580  24.342  0.00  0.00     0.045 C 
HETATM    9  C   UNL     1      -4.159  12.333  24.613  0.00  0.00     0.082 C 
HETATM   10  C   UNL     1      -3.879  11.634  25.793  0.00  0.00     0.074 C 
HETATM   11  C   UNL     1      -2.990  12.177  26.708  0.00  0.00     0.068 C 
HETATM   12  C   UNL     1      -2.455  13.441  26.508  0.00  0.00     0.037 C 
HETATM   13  C   UNL     1      -2.778  14.158  25.351  0.00  0.00     0.021 C 
BRANCH   9  14
HETATM   14  O   UNL     1      -5.002  11.739  23.715  0.00  0.00    -0.360 OA
HETATM   15  H   UNL     1      -4.831  10.783  23.691  0.00  0.00     0.217 HD
ENDBRANCH   9  14
BRANCH  11  16
HETATM   16  O   UNL     1      -2.610  11.494  27.824  0.00  0.00    -0.361 OA
HETATM   17  H   UNL     1      -2.449  10.565  27.590  0.00  0.00     0.217 HD
ENDBRANCH  11  16
ENDBRANCH   1   8
BRANCH   7  18
HETATM   18  C   UNL     1      -1.390  14.131  22.076  0.00  0.00     0.067 A 
HETATM   19  C   UNL     1      -0.963  12.815  21.796  0.00  0.00     0.061 A 
HETATM   20 CL   UNL     1      -2.055  11.523  21.425  0.00  0.00    -0.082 Cl
HETATM   21  C   UNL     1       0.401  12.528  21.658  0.00  0.00     0.026 A 
HETATM   22  C   UNL     1       1.351  13.537  21.794  0.00  0.00     0.002 A 
HETATM   23  C   UNL     1       0.945  14.830  22.110  0.00  0.00     0.002 A 
HETATM   24  C   UNL     1      -0.413  15.122  22.271  0.00  0.00     0.032 A 
ENDBRANCH   7  18
TORSDOF 4
ENDMDL
MODEL 4
REMARK VINA RESULT:    -6.502      1.950      2.151
REMARK INTER + INTRA:          -8.772
REMARK INTER:                  -7.751
REMARK INTRA:                  -1.022
REMARK UNBOUND:                -1.130
REMARK  4 active torsions:
REMARK  status: ('A' for Active; 'I' for Inactive)
REMARK    1  A    between atoms: O_1  and  C_2 
REMARK    2  A    between atoms: C_4  and  O_5 
REMARK    3  A    between atoms: C_6  and  C_9 
REMARK    4  A    between atoms: N_15  and  C_16 
ROOT
HETATM    1  C   UNL     1      -2.269  12.612  23.121  0.00  0.00     0.172 A 
HETATM    2  N   UNL     1      -3.234  11.995  22.488  0.00  0.00    -0.151 NA
HETATM    3  N   UNL     1      -2.711  11.661  21.276  0.00  0.00    -0.226 N 
HETATM    4  H   UNL     1      -3.184  11.037  20.635  0.00  0.00     0.194 HD
HETATM    5  C   UNL     1      -1.375  12.024  21.197  0.00  0.00     0.349 A 
HETATM    6  O   UNL     1      -0.608  11.682  20.313  0.00  0.00    -0.245 OA
HETATM    7  N   UNL     1      -1.119  12.730  22.365  0.00  0.00    -0.243 N 
ENDROOT
BRANCH   1   8
HETATM    8  C   UNL     1      -2.440  13.129  24.515  0.00  0.00     0.045 C 
HETATM    9  C   UNL     1      -2.892  12.279  25.543  0.00  0.00     0.082 C 
HETATM   10  C   UNL     1      -2.927  12.704  26.876  0.00  0.00     0.074 C 
HETATM   11  C   UNL     1      -2.500  13.986  27.190  0.00  0.00     0.068 C 
HETATM   12  C   UNL     1      -2.133  14.872  26.189  0.00  0.00     0.037 C 
HETATM   13  C   UNL     1      -2.148  14.459  24.853  0.00  0.00     0.021 C 
BRANCH   9  14
HETATM   14  O   UNL     1      -3.273  10.991  25.283  0.00  0.00    -0.360 OA
HETATM   15  H   UNL     1      -3.659  10.599  26.083  0.00  0.00     0.217 HD
ENDBRANCH   9  14
BRANCH  11  16
HETATM   16  O   UNL     1      -2.423  14.415  28.481  0.00  0.00    -0.361 OA
HETATM   17  H   UNL     1      -2.016  15.297  28.500  0.00  0.00     0.217 HD
ENDBRANCH  11  16
ENDBRANCH   1   8
BRANCH   7  18
HETATM   18  C   UNL     1       0.149  13.273  22.661  0.00  0.00     0.067 A 
HETATM   19  C   UNL     1       0.565  14.504  22.108  0.00  0.00     0.061 A 
HETATM   20 CL   UNL     1      -0.428  15.453  21.054  0.00  0.00    -0.082 Cl
HETATM   21  C   UNL     1       1.768  15.093  22.518  0.00  0.00     0.026 A 
HETATM   22  C   UNL     1       2.567  14.472  23.476  0.00  0.00     0.002 A 
HETATM   23  C   UNL     1       2.187  13.239  23.998  0.00  0.00     0.002 A 
HETATM   24  C   UNL     1       0.997  12.633  23.579  0.00  0.00     0.032 A 
ENDBRANCH   7  18
TORSDOF 4
ENDMDL
MODEL 5
REMARK VINA RESULT:    -6.493      2.761      3.891
REMARK INTER + INTRA:          -8.762
REMARK INTER:                  -7.656
REMARK INTRA:                  -1.106
REMARK UNBOUND:                -1.130
REMARK  4 active torsions:
REMARK  status: ('A' for Active; 'I' for Inactive)
REMARK    1  A    between atoms: O_1  and  C_2 
REMARK    2  A    between atoms: C_4  and  O_5 
REMARK    3  A    between atoms: C_6  and  C_9 
REMARK    4  A    between atoms: N_15  and  C_16 
ROOT
HETATM    1  C   UNL     1      -2.913  11.834  25.412  0.00  0.00     0.172 A 
HETATM    2  N   UNL     1      -4.146  11.433  25.240  0.00  0.00    -0.151 NA
HETATM    3  N   UNL     1      -4.802  12.506  24.718  0.00  0.00    -0.226 N 
HETATM    4  H   UNL     1      -5.737  12.437  24.339  0.00  0.00     0.194 HD
HETATM    5  C   UNL     1      -3.929  13.563  24.505  0.00  0.00     0.349 A 
HETATM    6  O   UNL     1      -4.195  14.574  23.877  0.00  0.00    -0.245 OA
HETATM    7  N   UNL     1      -2.720  13.152  25.050  0.00  0.00    -0.243 N 
ENDROOT
BRANCH   1   8
HETATM    8  C   UNL     1      -1.854  10.928  25.959  0.00  0.00     0.045 C 
HETATM    9  C   UNL     1      -1.921  10.471  27.290  0.00  0.00     0.082 C 
HETATM   10  C   UNL     1      -1.021   9.518  27.778  0.00  0.00     0.074 C 
HETATM   11  C   UNL     1      -0.048   9.007  26.931  0.00  0.00     0.068 C 
HETATM   12  C   UNL     1       0.096   9.502  25.643  0.00  0.00     0.037 C 
HETATM   13  C   UNL     1      -0.775  10.492  25.176  0.00  0.00     0.021 C 
BRANCH   9  14
HETATM   14  O   UNL     1      -2.896  10.911  28.143  0.00  0.00    -0.360 OA
HETATM   15  H   UNL     1      -3.481  11.529  27.677  0.00  0.00     0.217 HD
ENDBRANCH   9  14
BRANCH  11  16
HETATM   16  O   UNL     1       0.790   8.009  27.327  0.00  0.00    -0.361 OA
HETATM   17  H   UNL     1       1.398   7.795  26.600  0.00  0.00     0.217 HD
ENDBRANCH  11  16
ENDBRANCH   1   8
BRANCH   7  18
HETATM   18  C   UNL     1      -1.565  13.963  25.030  0.00  0.00     0.067 A 
HETATM   19  C   UNL     1      -1.174  14.707  26.164  0.00  0.00     0.061 A 
HETATM   20 CL   UNL     1      -2.044  14.680  27.662  0.00  0.00    -0.082 Cl
HETATM   21  C   UNL     1       0.045  15.398  26.172  0.00  0.00     0.026 A 
HETATM   22  C   UNL     1       0.885  15.357  25.062  0.00  0.00     0.002 A 
HETATM   23  C   UNL     1       0.491  14.660  23.923  0.00  0.00     0.002 A 
HETATM   24  C   UNL     1      -0.734  13.985  23.899  0.00  0.00     0.032 A 
ENDBRANCH   7  18
TORSDOF 4
ENDMDL
MODEL 6
REMARK VINA RESULT:    -6.464      1.843      2.370
REMARK INTER + INTRA:          -8.728
REMARK INTER:                  -7.589
REMARK INTRA:                  -1.139
REMARK UNBOUND:                -1.130
REMARK  4 active torsions:
REMARK  status: ('A' for Active; 'I' for Inactive)
REMARK    1  A    between atoms: O_1  and  C_2 
REMARK    2  A    between atoms: C_4  and  O_5 
REMARK    3  A    between atoms: C_6  and  C_9 
REMARK    4  A    between atoms: N_15  and  C_16 
ROOT
HETATM    1  C   UNL     1      -2.100  11.340  23.388  0.00  0.00     0.172 A 
HETATM    2  N   UNL     1      -2.981  10.861  22.547  0.00  0.00    -0.151 NA
HETATM    3  N   UNL     1      -2.911  11.670  21.455  0.00  0.00    -0.226 N 
HETATM    4  H   UNL     1      -3.371  11.445  20.582  0.00  0.00     0.194 HD
HETATM    5  C   UNL     1      -1.915  12.623  21.609  0.00  0.00     0.349 A 
HETATM    6  O   UNL     1      -1.501  13.352  20.724  0.00  0.00    -0.245 OA
HETATM    7  N   UNL     1      -1.457  12.464  22.910  0.00  0.00    -0.243 N 
ENDROOT
BRANCH   1   8
HETATM    8  C   UNL     1      -1.856  10.710  24.723  0.00  0.00     0.045 C 
HETATM    9  C   UNL     1      -1.016   9.585  24.840  0.00  0.00     0.082 C 
HETATM   10  C   UNL     1      -0.665   9.066  26.092  0.00  0.00     0.074 C 
HETATM   11  C   UNL     1      -1.148   9.678  27.239  0.00  0.00     0.068 C 
HETATM   12  C   UNL     1      -2.045  10.732  27.152  0.00  0.00     0.037 C 
HETATM   13  C   UNL     1      -2.433  11.214  25.898  0.00  0.00     0.021 C 
BRANCH   9  14
HETATM   14  O   UNL     1      -0.477   8.983  23.736  0.00  0.00    -0.360 OA
HETATM   15  H   UNL     1      -0.202   8.080  23.961  0.00  0.00     0.217 HD
ENDBRANCH   9  14
BRANCH  11  16
HETATM   16  O   UNL     1      -0.760   9.273  28.481  0.00  0.00    -0.361 OA
HETATM   17  H   UNL     1      -0.801  10.028  29.090  0.00  0.00     0.217 HD
ENDBRANCH  11  16
ENDBRANCH   1   8
BRANCH   7  18
HETATM   18  C   UNL     1      -0.427  13.261  23.455  0.00  0.00     0.067 A 
HETATM   19  C   UNL     1      -0.717  14.365  24.286  0.00  0.00     0.061 A 
HETATM   20 CL   UNL     1      -2.329  14.823  24.724  0.00  0.00    -0.082 Cl
HETATM   21  C   UNL     1       0.316  15.060  24.925  0.00  0.00     0.026 A 
HETATM   22  C   UNL     1       1.642  14.671  24.749  0.00  0.00     0.002 A 
HETATM   23  C   UNL     1       1.944  13.610  23.900  0.00  0.00     0.002 A 
HETATM   24  C   UNL     1       0.919  12.923  23.241  0.00  0.00     0.032 A 
ENDBRANCH   7  18
TORSDOF 4
ENDMDL
MODEL 7
REMARK VINA RESULT:    -6.412      2.703      3.734
REMARK INTER + INTRA:          -8.667
REMARK INTER:                  -7.547
REMARK INTRA:                  -1.121
REMARK UNBOUND:                -1.130
REMARK  4 active torsions:
REMARK  status: ('A' for Active; 'I' for Inactive)
REMARK    1  A    between atoms: O_1  and  C_2 
REMARK    2  A    between atoms: C_4  and  O_5 
REMARK    3  A    between atoms: C_6  and  C_9 
REMARK    4  A    between atoms: N_15  and  C_16 
ROOT
HETATM    1  C   UNL     1      -3.068  11.349  24.733  0.00  0.00     0.172 A 
HETATM    2  N   UNL     1      -4.138  10.952  24.093  0.00  0.00    -0.151 NA
HETATM    3  N   UNL     1      -4.728  12.093  23.640  0.00  0.00    -0.226 N 
HETATM    4  H   UNL     1      -5.493  12.081  22.978  0.00  0.00     0.194 HD
HETATM    5  C   UNL     1      -3.961  13.205  23.956  0.00  0.00     0.349 A 
HETATM    6  O   UNL     1      -4.144  14.327  23.517  0.00  0.00    -0.245 OA
HETATM    7  N   UNL     1      -2.931  12.723  24.752  0.00  0.00    -0.243 N 
ENDROOT
BRANCH   1   8
HETATM    8  C   UNL     1      -2.123  10.381  25.373  0.00  0.00     0.045 C 
HETATM    9  C   UNL     1      -1.162   9.702  24.599  0.00  0.00     0.082 C 
HETATM   10  C   UNL     1      -0.182   8.899  25.195  0.00  0.00     0.074 C 
HETATM   11  C   UNL     1      -0.154   8.777  26.577  0.00  0.00     0.068 C 
HETATM   12  C   UNL     1      -1.140   9.364  27.357  0.00  0.00     0.037 C 
HETATM   13  C   UNL     1      -2.146  10.123  26.751  0.00  0.00     0.021 C 
BRANCH   9  14
HETATM   14  O   UNL     1      -1.123   9.835  23.238  0.00  0.00    -0.360 OA
HETATM   15  H   UNL     1      -0.257  10.183  22.970  0.00  0.00     0.217 HD
ENDBRANCH   9  14
BRANCH  11  16
HETATM   16  O   UNL     1       0.835   8.088  27.212  0.00  0.00    -0.361 OA
HETATM   17  H   UNL     1       1.366   8.707  27.740  0.00  0.00     0.217 HD
ENDBRANCH  11  16
ENDBRANCH   1   8
BRANCH   7  18
HETATM   18  C   UNL     1      -1.926  13.560  25.282  0.00  0.00     0.067 A 
HETATM   19  C   UNL     1      -0.790  13.912  24.521  0.00  0.00     0.061 A 
HETATM   20 CL   UNL     1      -0.539  13.378  22.892  0.00  0.00    -0.082 Cl
HETATM   21  C   UNL     1       0.127  14.849  25.011  0.00  0.00     0.026 A 
HETATM   22  C   UNL     1      -0.070  15.446  26.254  0.00  0.00     0.002 A 
HETATM   23  C   UNL     1      -1.165  15.077  27.031  0.00  0.00     0.002 A 
HETATM   24  C   UNL     1      -2.075  14.126  26.558  0.00  0.00     0.032 A 
ENDBRANCH   7  18
TORSDOF 4
ENDMDL
MODEL 8
REMARK VINA RESULT:    -6.319      2.065      2.633
REMARK INTER + INTRA:          -8.557
REMARK INTER:                  -7.427
REMARK INTRA:                  -1.130
REMARK UNBOUND:                -1.130
REMARK  4 active torsions:
REMARK  status: ('A' for Active; 'I' for Inactive)
REMARK    1  A    between atoms: O_1  and  C_2 
REMARK    2  A    between atoms: C_4  and  O_5 
REMARK    3  A    between atoms: C_6  and  C_9 
REMARK    4  A    between atoms: N_15  and  C_16 
ROOT
HETATM    1  C   UNL     1      -3.173  12.474  23.422  0.00  0.00     0.172 A 
HETATM    2  N   UNL     1      -4.468  12.428  23.244  0.00  0.00    -0.151 NA
HETATM    3  N   UNL     1      -4.709  13.210  22.155  0.00  0.00    -0.226 N 
HETATM    4  H   UNL     1      -5.608  13.234  21.693  0.00  0.00     0.194 HD
HETATM    5  C   UNL     1      -3.522  13.688  21.619  0.00  0.00     0.349 A 
HETATM    6  O   UNL     1      -3.418  14.251  20.542  0.00  0.00    -0.245 OA
HETATM    7  N   UNL     1      -2.533  13.286  22.506  0.00  0.00    -0.243 N 
ENDROOT
BRANCH   1   8
HETATM    8  C   UNL     1      -2.498  11.720  24.524  0.00  0.00     0.045 C 
HETATM    9  C   UNL     1      -2.667  12.111  25.866  0.00  0.00     0.082 C 
HETATM   10  C   UNL     1      -2.158  11.341  26.918  0.00  0.00     0.074 C 
HETATM   11  C   UNL     1      -1.481  10.164  26.632  0.00  0.00     0.068 C 
HETATM   12  C   UNL     1      -1.225   9.800  25.318  0.00  0.00     0.037 C 
HETATM   13  C   UNL     1      -1.692  10.600  24.270  0.00  0.00     0.021 C 
BRANCH   9  14
HETATM   14  O   UNL     1      -3.371  13.237  26.195  0.00  0.00    -0.360 OA
HETATM   15  H   UNL     1      -2.786  13.865  26.649  0.00  0.00     0.217 HD
ENDBRANCH   9  14
BRANCH  11  16
HETATM   16  O   UNL     1      -1.052   9.330  27.620  0.00  0.00    -0.361 OA
HETATM   17  H   UNL     1      -0.961   8.432  27.261  0.00  0.00     0.217 HD
ENDBRANCH  11  16
ENDBRANCH   1   8
BRANCH   7  18
HETATM   18  C   UNL     1      -1.168  13.584  22.307  0.00  0.00     0.067 A 
HETATM   19  C   UNL     1      -0.511  14.561  23.086  0.00  0.00     0.061 A 
HETATM   20 CL   UNL     1      -1.295  15.451  24.347  0.00  0.00    -0.082 Cl
HETATM   21  C   UNL     1       0.872  14.747  22.967  0.00  0.00     0.026 A 
HETATM   22  C   UNL     1       1.615  13.972  22.081  0.00  0.00     0.002 A 
HETATM   23  C   UNL     1       0.972  13.033  21.278  0.00  0.00     0.002 A 
HETATM   24  C   UNL     1      -0.412  12.855  21.375  0.00  0.00     0.032 A 
ENDBRANCH   7  18
TORSDOF 4
ENDMDL
MODEL 9
REMARK VINA RESULT:    -5.136      2.704      5.729
REMARK INTER + INTRA:          -7.167
REMARK INTER:                  -6.036
REMARK INTRA:                  -1.131
REMARK UNBOUND:                -1.130
REMARK  4 active torsions:
REMARK  status: ('A' for Active; 'I' for Inactive)
REMARK    1  A    between atoms: O_1  and  C_2 
REMARK    2  A    between atoms: C_4  and  O_5 
REMARK    3  A    between atoms: C_6  and  C_9 
REMARK    4  A    between atoms: N_15  and  C_16 
ROOT
HETATM    1  C   UNL     1      -0.178  11.899  22.624  0.00  0.00     0.172 A 
HETATM    2  N   UNL     1       0.114  10.761  23.201  0.00  0.00    -0.151 NA
HETATM    3  N   UNL     1      -1.086  10.178  23.471  0.00  0.00    -0.226 N 
HETATM    4  H   UNL     1      -1.165   9.217  23.777  0.00  0.00     0.194 HD
HETATM    5  C   UNL     1      -2.131  10.950  22.984  0.00  0.00     0.349 A 
HETATM    6  O   UNL     1      -3.293  10.588  22.913  0.00  0.00    -0.245 OA
HETATM    7  N   UNL     1      -1.538  12.116  22.521  0.00  0.00    -0.243 N 
ENDROOT
BRANCH   1   8
HETATM    8  C   UNL     1       0.883  12.842  22.150  0.00  0.00     0.045 C 
HETATM    9  C   UNL     1       1.679  13.545  23.075  0.00  0.00     0.082 C 
HETATM   10  C   UNL     1       2.764  14.324  22.657  0.00  0.00     0.074 C 
HETATM   11  C   UNL     1       3.065  14.398  21.305  0.00  0.00     0.068 C 
HETATM   12  C   UNL     1       2.247  13.787  20.366  0.00  0.00     0.037 C 
HETATM   13  C   UNL     1       1.134  13.051  20.786  0.00  0.00     0.021 C 
BRANCH   9  14
HETATM   14  O   UNL     1       1.448  13.459  24.421  0.00  0.00    -0.360 OA
HETATM   15  H   UNL     1       0.678  14.002  24.654  0.00  0.00     0.217 HD
ENDBRANCH   9  14
BRANCH  11  16
HETATM   16  O   UNL     1       4.166  15.063  20.854  0.00  0.00    -0.361 OA
HETATM   17  H   UNL     1       4.771  14.429  20.434  0.00  0.00     0.217 HD
ENDBRANCH  11  16
ENDBRANCH   1   8
BRANCH   7  18
HETATM   18  C   UNL     1      -2.281  13.167  21.942  0.00  0.00     0.067 A 
HETATM   19  C   UNL     1      -2.507  14.374  22.640  0.00  0.00     0.061 A 
HETATM   20 CL   UNL     1      -1.890  14.680  24.229  0.00  0.00    -0.082 Cl
HETATM   21  C   UNL     1      -3.129  15.454  22.001  0.00  0.00     0.026 A 
HETATM   22  C   UNL     1      -3.529  15.351  20.671  0.00  0.00     0.002 A 
HETATM   23  C   UNL     1      -3.348  14.153  19.985  0.00  0.00     0.002 A 
HETATM   24  C   UNL     1      -2.747  13.062  20.622  0.00  0.00     0.032 A 
ENDBRANCH   7  18
TORSDOF 4
ENDMDL
