MODEL 1
REMARK VINA RESULT:    -9.132      0.000      0.000
REMARK INTER + INTRA:         -13.741
REMARK INTER:                 -12.259
REMARK INTRA:                  -1.482
REMARK UNBOUND:                -1.139
REMARK  7 active torsions:
REMARK  status: ('A' for Active; 'I' for Inactive)
REMARK    1  A    between atoms: N_6  and  C_8 
REMARK    2  A    between atoms: C_8  and  C_9 
REMARK    3  A    between atoms: C_14  and  N_15 
REMARK       I    between atoms: N_15  and  C_17 
REMARK    4  A    between atoms: C_17  and  C_19 
REMARK    5  A    between atoms: C_20  and  O_22 
REMARK    6  A    between atoms: C_26  and  C_30 
REMARK    7  A    between atoms: C_30  and  C_31 
ROOT
HETATM    1  C   UNL     1       7.298  12.033  21.514  0.00  0.00     0.066 A 
HETATM    2  C   UNL     1       8.355  11.553  22.298  0.00  0.00     0.083 A 
HETATM    3  C   UNL     1       8.708  12.164  23.508  0.00  0.00     0.069 A 
HETATM    4  C   UNL     1       6.642  13.228  21.890  0.00  0.00     0.035 A 
HETATM    5  C   UNL     1       6.992  13.867  23.100  0.00  0.00     0.020 A 
HETATM    6  C   UNL     1       8.007  13.315  23.872  0.00  0.00     0.065 A 
HETATM    7  C   UNL     1       6.563  15.017  23.832  0.00  0.00     0.071 A 
HETATM    8  N   UNL     1       7.289  15.186  24.949  0.00  0.00    -0.178 NA
HETATM    9  N   UNL     1       8.127  14.139  24.958  0.00  0.00    -0.277 N 
HETATM   10  H   UNL     1       8.773  14.050  25.735  0.00  0.00     0.189 HD
ENDROOT
BRANCH   1  11
HETATM   11  C   UNL     1       6.853  11.399  20.236  0.00  0.00     0.260 C 
HETATM   12  N   UNL     1       5.811  10.445  20.224  0.00  0.00    -0.318 N 
HETATM   13  C   UNL     1       4.893  10.167  21.334  0.00  0.00     0.159 C 
HETATM   14  O   UNL     1       7.475  11.722  19.221  0.00  0.00    -0.267 OA
BRANCH  12  15
HETATM   15  C   UNL     1       5.438   9.865  18.978  0.00  0.00     0.037 C 
HETATM   16  C   UNL     1       5.962   8.632  18.590  0.00  0.00     0.030 C 
HETATM   17  C   UNL     1       5.501   7.998  17.436  0.00  0.00     0.011 C 
HETATM   18  C   UNL     1       4.451   8.557  16.692  0.00  0.00    -0.032 C 
HETATM   19  C   UNL     1       4.000   9.843  17.025  0.00  0.00     0.011 C 
HETATM   20  C   UNL     1       4.510  10.507  18.148  0.00  0.00     0.030 C 
BRANCH  18  21
HETATM   21  C   UNL     1       3.735   7.718  15.665  0.00  0.00     0.273 C 
BRANCH  21  22
HETATM   22  N   UNL     1       3.431   6.313  16.174  0.00  0.00    -0.063 N 
HETATM   23  C   UNL     1       2.214   6.305  17.090  0.00  0.00     0.261 C 
HETATM   24  C   UNL     1       1.897   4.876  17.545  0.00  0.00     0.195 C 
HETATM   25  O   UNL     1       1.692   4.017  16.420  0.00  0.00    -0.388 OA
HETATM   26  C   UNL     1       2.873   3.921  15.620  0.00  0.00     0.195 C 
HETATM   27  C   UNL     1       3.261   5.287  15.049  0.00  0.00     0.261 C 
HETATM   28  H   UNL     1       4.250   6.017  16.720  0.00  0.00     0.280 HD
ENDBRANCH  21  22
ENDBRANCH  18  21
ENDBRANCH  12  15
ENDBRANCH   1  11
BRANCH   2  29
HETATM   29  O   UNL     1       9.150  10.496  21.940  0.00  0.00    -0.360 OA
HETATM   30  H   UNL     1       9.768  10.308  22.666  0.00  0.00     0.217 HD
ENDBRANCH   2  29
BRANCH   7  31
HETATM   31  C   UNL     1       5.487  16.004  23.494  0.00  0.00     0.100 C 
BRANCH  31  32
HETATM   32  C   UNL     1       4.156  15.376  23.856  0.00  0.00    -0.052 A 
HETATM   33  C   UNL     1       3.671  15.402  25.174  0.00  0.00     0.007 A 
HETATM   34  C   UNL     1       2.435  14.840  25.493  0.00  0.00     0.001 A 
HETATM   35  C   UNL     1       1.651  14.266  24.497  0.00  0.00     0.007 A 
HETATM   36  C   UNL     1       2.092  14.257  23.169  0.00  0.00    -0.061 A 
HETATM   37  C   UNL     1       3.338  14.823  22.855  0.00  0.00     0.014 A 
HETATM   38  C   UNL     1       1.198  13.724  22.088  0.00  0.00     0.048 C 
ENDBRANCH  31  32
ENDBRANCH   7  31
TORSDOF 7
ENDMDL
MODEL 2
REMARK VINA RESULT:    -8.940      1.124      1.291
REMARK INTER + INTRA:         -13.476
REMARK INTER:                 -11.977
REMARK INTRA:                  -1.499
REMARK UNBOUND:                -1.139
REMARK  7 active torsions:
REMARK  status: ('A' for Active; 'I' for Inactive)
REMARK    1  A    between atoms: N_6  and  C_8 
REMARK    2  A    between atoms: C_8  and  C_9 
REMARK    3  A    between atoms: C_14  and  N_15 
REMARK       I    between atoms: N_15  and  C_17 
REMARK    4  A    between atoms: C_17  and  C_19 
REMARK    5  A    between atoms: C_20  and  O_22 
REMARK    6  A    between atoms: C_26  and  C_30 
REMARK    7  A    between atoms: C_30  and  C_31 
ROOT
HETATM    1  C   UNL     1       6.495  11.570  22.501  0.00  0.00     0.066 A 
HETATM    2  C   UNL     1       7.537  11.031  23.267  0.00  0.00     0.083 A 
HETATM    3  C   UNL     1       8.067  11.714  24.369  0.00  0.00     0.069 A 
HETATM    4  C   UNL     1       6.042  12.882  22.772  0.00  0.00     0.035 A 
HETATM    5  C   UNL     1       6.573  13.594  23.870  0.00  0.00     0.020 A 
HETATM    6  C   UNL     1       7.562  12.988  24.637  0.00  0.00     0.065 A 
HETATM    7  C   UNL     1       6.367  14.867  24.484  0.00  0.00     0.071 A 
HETATM    8  N   UNL     1       7.198  15.051  25.523  0.00  0.00    -0.178 NA
HETATM    9  N   UNL     1       7.882  13.901  25.605  0.00  0.00    -0.277 N 
HETATM   10  H   UNL     1       8.570  13.805  26.343  0.00  0.00     0.189 HD
ENDROOT
BRANCH   1  11
HETATM   11  C   UNL     1       5.865  10.872  21.340  0.00  0.00     0.260 C 
HETATM   12  N   UNL     1       6.335  11.084  20.025  0.00  0.00    -0.318 N 
HETATM   13  C   UNL     1       7.592  11.747  19.662  0.00  0.00     0.159 C 
HETATM   14  O   UNL     1       4.898  10.151  21.595  0.00  0.00    -0.267 OA
BRANCH  12  15
HETATM   15  C   UNL     1       5.687  10.401  18.956  0.00  0.00     0.037 C 
HETATM   16  C   UNL     1       6.040   9.089  18.641  0.00  0.00     0.030 C 
HETATM   17  C   UNL     1       5.320   8.371  17.686  0.00  0.00     0.011 C 
HETATM   18  C   UNL     1       4.185   8.935  17.084  0.00  0.00    -0.032 C 
HETATM   19  C   UNL     1       3.895  10.285  17.325  0.00  0.00     0.011 C 
HETATM   20  C   UNL     1       4.660  11.025  18.238  0.00  0.00     0.030 C 
BRANCH  18  21
HETATM   21  C   UNL     1       3.227   8.051  16.327  0.00  0.00     0.273 C 
BRANCH  21  22
HETATM   22  N   UNL     1       2.975   6.726  17.037  0.00  0.00    -0.063 N 
HETATM   23  C   UNL     1       1.997   6.891  18.193  0.00  0.00     0.261 C 
HETATM   24  C   UNL     1       1.720   5.537  18.856  0.00  0.00     0.195 C 
HETATM   25  O   UNL     1       1.223   4.595  17.903  0.00  0.00    -0.388 OA
HETATM   26  C   UNL     1       2.187   4.340  16.878  0.00  0.00     0.195 C 
HETATM   27  C   UNL     1       2.504   5.615  16.093  0.00  0.00     0.261 C 
HETATM   28  H   UNL     1       3.880   6.423  17.418  0.00  0.00     0.280 HD
ENDBRANCH  21  22
ENDBRANCH  18  21
ENDBRANCH  12  15
ENDBRANCH   1  11
BRANCH   2  29
HETATM   29  O   UNL     1       8.147   9.837  22.989  0.00  0.00    -0.360 OA
HETATM   30  H   UNL     1       7.465   9.154  22.878  0.00  0.00     0.217 HD
ENDBRANCH   2  29
BRANCH   7  31
HETATM   31  C   UNL     1       5.413  15.957  24.099  0.00  0.00     0.100 C 
BRANCH  31  32
HETATM   32  C   UNL     1       4.007  15.402  24.218  0.00  0.00    -0.052 A 
HETATM   33  C   UNL     1       3.374  15.278  25.465  0.00  0.00     0.007 A 
HETATM   34  C   UNL     1       2.073  14.785  25.561  0.00  0.00     0.001 A 
HETATM   35  C   UNL     1       1.373  14.433  24.410  0.00  0.00     0.007 A 
HETATM   36  C   UNL     1       1.965  14.579  23.150  0.00  0.00    -0.061 A 
HETATM   37  C   UNL     1       3.277  15.074  23.062  0.00  0.00     0.014 A 
HETATM   38  C   UNL     1       1.170  14.290  21.912  0.00  0.00     0.048 C 
ENDBRANCH  31  32
ENDBRANCH   7  31
TORSDOF 7
ENDMDL
MODEL 3
REMARK VINA RESULT:    -8.815      5.289      7.916
REMARK INTER + INTRA:         -13.304
REMARK INTER:                 -12.009
REMARK INTRA:                  -1.296
REMARK UNBOUND:                -1.139
REMARK  7 active torsions:
REMARK  status: ('A' for Active; 'I' for Inactive)
REMARK    1  A    between atoms: N_6  and  C_8 
REMARK    2  A    between atoms: C_8  and  C_9 
REMARK    3  A    between atoms: C_14  and  N_15 
REMARK       I    between atoms: N_15  and  C_17 
REMARK    4  A    between atoms: C_17  and  C_19 
REMARK    5  A    between atoms: C_20  and  O_22 
REMARK    6  A    between atoms: C_26  and  C_30 
REMARK    7  A    between atoms: C_30  and  C_31 
ROOT
HETATM    1  C   UNL     1       8.212  13.057  22.186  0.00  0.00     0.066 A 
HETATM    2  C   UNL     1       8.637  12.025  21.341  0.00  0.00     0.083 A 
HETATM    3  C   UNL     1       9.993  11.826  21.048  0.00  0.00     0.069 A 
HETATM    4  C   UNL     1       9.156  13.994  22.667  0.00  0.00     0.035 A 
HETATM    5  C   UNL     1      10.527  13.820  22.372  0.00  0.00     0.020 A 
HETATM    6  C   UNL     1      10.903  12.742  21.579  0.00  0.00     0.065 A 
HETATM    7  C   UNL     1      11.751  14.485  22.686  0.00  0.00     0.071 A 
HETATM    8  N   UNL     1      12.799  13.889  22.094  0.00  0.00    -0.178 NA
HETATM    9  N   UNL     1      12.263  12.836  21.460  0.00  0.00    -0.277 N 
HETATM   10  H   UNL     1      12.883  12.220  20.947  0.00  0.00     0.189 HD
ENDROOT
BRANCH   1  11
HETATM   11  C   UNL     1       6.785  13.292  22.564  0.00  0.00     0.260 C 
HETATM   12  N   UNL     1       6.383  13.281  23.918  0.00  0.00    -0.318 N 
HETATM   13  C   UNL     1       7.281  13.318  25.078  0.00  0.00     0.159 C 
HETATM   14  O   UNL     1       5.991  13.444  21.633  0.00  0.00    -0.267 OA
BRANCH  12  15
HETATM   15  C   UNL     1       5.008  13.498  24.217  0.00  0.00     0.037 C 
HETATM   16  C   UNL     1       4.550  14.774  24.546  0.00  0.00     0.030 C 
HETATM   17  C   UNL     1       3.187  15.017  24.709  0.00  0.00     0.011 C 
HETATM   18  C   UNL     1       2.252  13.999  24.471  0.00  0.00    -0.032 C 
HETATM   19  C   UNL     1       2.718  12.696  24.244  0.00  0.00     0.011 C 
HETATM   20  C   UNL     1       4.093  12.440  24.144  0.00  0.00     0.030 C 
BRANCH  18  21
HETATM   21  C   UNL     1       0.794  14.347  24.313  0.00  0.00     0.273 C 
BRANCH  21  22
HETATM   22  N   UNL     1       0.073  13.405  23.356  0.00  0.00    -0.063 N 
HETATM   23  C   UNL     1      -1.352  13.125  23.819  0.00  0.00     0.261 C 
HETATM   24  C   UNL     1      -2.072  12.218  22.814  0.00  0.00     0.195 C 
HETATM   25  O   UNL     1      -2.069  12.802  21.509  0.00  0.00    -0.388 OA
HETATM   26  C   UNL     1      -0.736  12.955  21.014  0.00  0.00     0.195 C 
HETATM   27  C   UNL     1       0.076  13.898  21.906  0.00  0.00     0.261 C 
HETATM   28  H   UNL     1       0.596  12.521  23.367  0.00  0.00     0.280 HD
ENDBRANCH  21  22
ENDBRANCH  18  21
ENDBRANCH  12  15
ENDBRANCH   1  11
BRANCH   2  29
HETATM   29  O   UNL     1       7.784  11.163  20.702  0.00  0.00    -0.360 OA
HETATM   30  H   UNL     1       7.675  11.455  19.782  0.00  0.00     0.217 HD
ENDBRANCH   2  29
BRANCH   7  31
HETATM   31  C   UNL     1      11.974  15.711  23.520  0.00  0.00     0.100 C 
BRANCH  31  32
HETATM   32  C   UNL     1      11.818  15.313  24.974  0.00  0.00    -0.052 A 
HETATM   33  C   UNL     1      10.657  15.631  25.698  0.00  0.00     0.007 A 
HETATM   34  C   UNL     1      10.515  15.242  27.030  0.00  0.00     0.001 A 
HETATM   35  C   UNL     1      11.519  14.506  27.653  0.00  0.00     0.007 A 
HETATM   36  C   UNL     1      12.672  14.144  26.946  0.00  0.00    -0.061 A 
HETATM   37  C   UNL     1      12.808  14.541  25.606  0.00  0.00     0.014 A 
HETATM   38  C   UNL     1      13.702  13.268  27.595  0.00  0.00     0.048 C 
ENDBRANCH  31  32
ENDBRANCH   7  31
TORSDOF 7
ENDMDL
MODEL 4
REMARK VINA RESULT:    -8.613      5.028      6.651
REMARK INTER + INTRA:         -13.024
REMARK INTER:                 -12.051
REMARK INTRA:                  -0.974
REMARK UNBOUND:                -1.139
REMARK  7 active torsions:
REMARK  status: ('A' for Active; 'I' for Inactive)
REMARK    1  A    between atoms: N_6  and  C_8 
REMARK    2  A    between atoms: C_8  and  C_9 
REMARK    3  A    between atoms: C_14  and  N_15 
REMARK       I    between atoms: N_15  and  C_17 
REMARK    4  A    between atoms: C_17  and  C_19 
REMARK    5  A    between atoms: C_20  and  O_22 
REMARK    6  A    between atoms: C_26  and  C_30 
REMARK    7  A    between atoms: C_30  and  C_31 
ROOT
HETATM    1  C   UNL     1       8.438  10.892  22.562  0.00  0.00     0.066 A 
HETATM    2  C   UNL     1       9.687  10.262  22.478  0.00  0.00     0.083 A 
HETATM    3  C   UNL     1      10.873  10.996  22.350  0.00  0.00     0.069 A 
HETATM    4  C   UNL     1       8.357  12.295  22.398  0.00  0.00     0.035 A 
HETATM    5  C   UNL     1       9.540  13.053  22.253  0.00  0.00     0.020 A 
HETATM    6  C   UNL     1      10.758  12.383  22.239  0.00  0.00     0.065 A 
HETATM    7  C   UNL     1       9.882  14.433  22.111  0.00  0.00     0.071 A 
HETATM    8  N   UNL     1      11.208  14.597  21.974  0.00  0.00    -0.178 NA
HETATM    9  N   UNL     1      11.707  13.358  22.080  0.00  0.00    -0.277 N 
HETATM   10  H   UNL     1      12.712  13.239  22.021  0.00  0.00     0.189 HD
ENDROOT
BRANCH   1  11
HETATM   11  C   UNL     1       7.146  10.164  22.738  0.00  0.00     0.260 C 
HETATM   12  N   UNL     1       6.310  10.430  23.846  0.00  0.00    -0.318 N 
HETATM   13  C   UNL     1       6.437  11.569  24.760  0.00  0.00     0.159 C 
HETATM   14  O   UNL     1       6.887   9.300  21.898  0.00  0.00    -0.267 OA
BRANCH  12  15
HETATM   15  C   UNL     1       5.096   9.695  23.969  0.00  0.00     0.037 C 
HETATM   16  C   UNL     1       5.125   8.314  24.169  0.00  0.00     0.030 C 
HETATM   17  C   UNL     1       3.948   7.611  24.422  0.00  0.00     0.011 C 
HETATM   18  C   UNL     1       2.729   8.293  24.554  0.00  0.00    -0.032 C 
HETATM   19  C   UNL     1       2.687   9.661  24.250  0.00  0.00     0.011 C 
HETATM   20  C   UNL     1       3.862  10.355  23.933  0.00  0.00     0.030 C 
BRANCH  18  21
HETATM   21  C   UNL     1       1.542   7.588  25.159  0.00  0.00     0.273 C 
BRANCH  21  22
HETATM   22  N   UNL     1       1.283   8.017  26.598  0.00  0.00    -0.063 N 
HETATM   23  C   UNL     1      -0.205   8.003  26.924  0.00  0.00     0.261 C 
HETATM   24  C   UNL     1      -0.434   8.387  28.391  0.00  0.00     0.195 C 
HETATM   25  O   UNL     1       0.284   7.513  29.264  0.00  0.00    -0.388 OA
HETATM   26  C   UNL     1       1.694   7.611  29.050  0.00  0.00     0.195 C 
HETATM   27  C   UNL     1       2.063   7.190  27.625  0.00  0.00     0.261 C 
HETATM   28  H   UNL     1       1.624   8.983  26.681  0.00  0.00     0.280 HD
ENDBRANCH  21  22
ENDBRANCH  18  21
ENDBRANCH  12  15
ENDBRANCH   1  11
BRANCH   2  29
HETATM   29  O   UNL     1       9.854   8.903  22.470  0.00  0.00    -0.360 OA
HETATM   30  H   UNL     1       9.873   8.583  23.388  0.00  0.00     0.217 HD
ENDBRANCH   2  29
BRANCH   7  31
HETATM   31  C   UNL     1       8.980  15.629  22.068  0.00  0.00     0.100 C 
BRANCH  31  32
HETATM   32  C   UNL     1       7.990  15.501  23.208  0.00  0.00    -0.052 A 
HETATM   33  C   UNL     1       8.414  15.201  24.513  0.00  0.00     0.007 A 
HETATM   34  C   UNL     1       7.497  15.106  25.559  0.00  0.00     0.001 A 
HETATM   35  C   UNL     1       6.144  15.334  25.325  0.00  0.00     0.007 A 
HETATM   36  C   UNL     1       5.696  15.669  24.042  0.00  0.00    -0.061 A 
HETATM   37  C   UNL     1       6.625  15.761  22.993  0.00  0.00     0.014 A 
HETATM   38  C   UNL     1       4.252  16.009  23.819  0.00  0.00     0.048 C 
ENDBRANCH  31  32
ENDBRANCH   7  31
TORSDOF 7
ENDMDL
MODEL 5
REMARK VINA RESULT:    -8.424      5.192      7.936
REMARK INTER + INTRA:         -12.764
REMARK INTER:                 -11.479
REMARK INTRA:                  -1.286
REMARK UNBOUND:                -1.139
REMARK  7 active torsions:
REMARK  status: ('A' for Active; 'I' for Inactive)
REMARK    1  A    between atoms: N_6  and  C_8 
REMARK    2  A    between atoms: C_8  and  C_9 
REMARK    3  A    between atoms: C_14  and  N_15 
REMARK       I    between atoms: N_15  and  C_17 
REMARK    4  A    between atoms: C_17  and  C_19 
REMARK    5  A    between atoms: C_20  and  O_22 
REMARK    6  A    between atoms: C_26  and  C_30 
REMARK    7  A    between atoms: C_30  and  C_31 
ROOT
HETATM    1  C   UNL     1       7.243  13.543  23.307  0.00  0.00     0.066 A 
HETATM    2  C   UNL     1       6.642  14.742  22.903  0.00  0.00     0.083 A 
HETATM    3  C   UNL     1       7.392  15.794  22.363  0.00  0.00     0.069 A 
HETATM    4  C   UNL     1       8.652  13.429  23.278  0.00  0.00     0.035 A 
HETATM    5  C   UNL     1       9.429  14.484  22.750  0.00  0.00     0.020 A 
HETATM    6  C   UNL     1       8.778  15.628  22.305  0.00  0.00     0.065 A 
HETATM    7  C   UNL     1      10.815  14.738  22.512  0.00  0.00     0.071 A 
HETATM    8  N   UNL     1      11.007  15.966  22.001  0.00  0.00    -0.178 NA
HETATM    9  N   UNL     1       9.769  16.463  21.865  0.00  0.00    -0.277 N 
HETATM   10  H   UNL     1       9.668  17.393  21.475  0.00  0.00     0.189 HD
ENDROOT
BRANCH   1  11
HETATM   11  C   UNL     1       6.489  12.374  23.852  0.00  0.00     0.260 C 
HETATM   12  N   UNL     1       5.858  11.451  22.988  0.00  0.00    -0.318 N 
HETATM   13  C   UNL     1       6.072  11.351  21.540  0.00  0.00     0.159 C 
HETATM   14  O   UNL     1       6.414  12.297  25.081  0.00  0.00    -0.267 OA
BRANCH  12  15
HETATM   15  C   UNL     1       5.142  10.364  23.565  0.00  0.00     0.037 C 
HETATM   16  C   UNL     1       5.805   9.186  23.910  0.00  0.00     0.030 C 
HETATM   17  C   UNL     1       5.138   8.171  24.595  0.00  0.00     0.011 C 
HETATM   18  C   UNL     1       3.811   8.353  25.012  0.00  0.00    -0.032 C 
HETATM   19  C   UNL     1       3.117   9.490  24.575  0.00  0.00     0.011 C 
HETATM   20  C   UNL     1       3.772  10.481  23.831  0.00  0.00     0.030 C 
BRANCH  18  21
HETATM   21  C   UNL     1       3.215   7.416  26.032  0.00  0.00     0.273 C 
BRANCH  21  22
HETATM   22  N   UNL     1       1.781   7.786  26.392  0.00  0.00    -0.063 N 
HETATM   23  C   UNL     1       0.777   6.959  25.599  0.00  0.00     0.261 C 
HETATM   24  C   UNL     1      -0.655   7.311  26.017  0.00  0.00     0.195 C 
HETATM   25  O   UNL     1      -0.837   7.119  27.421  0.00  0.00    -0.388 OA
HETATM   26  C   UNL     1       0.015   7.983  28.177  0.00  0.00     0.195 C 
HETATM   27  C   UNL     1       1.490   7.685  27.893  0.00  0.00     0.261 C 
HETATM   28  H   UNL     1       1.661   8.774  26.136  0.00  0.00     0.280 HD
ENDBRANCH  21  22
ENDBRANCH  18  21
ENDBRANCH  12  15
ENDBRANCH   1  11
BRANCH   2  29
HETATM   29  O   UNL     1       5.304  15.006  23.037  0.00  0.00    -0.360 OA
HETATM   30  H   UNL     1       4.897  14.301  23.567  0.00  0.00     0.217 HD
ENDBRANCH   2  29
BRANCH   7  31
HETATM   31  C   UNL     1      11.997  13.858  22.783  0.00  0.00     0.100 C 
BRANCH  31  32
HETATM   32  C   UNL     1      12.595  14.286  24.109  0.00  0.00    -0.052 A 
HETATM   33  C   UNL     1      13.716  15.129  24.165  0.00  0.00     0.007 A 
HETATM   34  C   UNL     1      14.246  15.534  25.391  0.00  0.00     0.001 A 
HETATM   35  C   UNL     1      13.648  15.125  26.579  0.00  0.00     0.007 A 
HETATM   36  C   UNL     1      12.508  14.313  26.554  0.00  0.00    -0.061 A 
HETATM   37  C   UNL     1      11.982  13.908  25.316  0.00  0.00     0.014 A 
HETATM   38  C   UNL     1      11.815  13.958  27.836  0.00  0.00     0.048 C 
ENDBRANCH  31  32
ENDBRANCH   7  31
TORSDOF 7
ENDMDL
MODEL 6
REMARK VINA RESULT:    -8.346      2.279      4.389
REMARK INTER + INTRA:         -12.657
REMARK INTER:                 -11.653
REMARK INTRA:                  -1.003
REMARK UNBOUND:                -1.139
REMARK  7 active torsions:
REMARK  status: ('A' for Active; 'I' for Inactive)
REMARK    1  A    between atoms: N_6  and  C_8 
REMARK    2  A    between atoms: C_8  and  C_9 
REMARK    3  A    between atoms: C_14  and  N_15 
REMARK       I    between atoms: N_15  and  C_17 
REMARK    4  A    between atoms: C_17  and  C_19 
REMARK    5  A    between atoms: C_20  and  O_22 
REMARK    6  A    between atoms: C_26  and  C_30 
REMARK    7  A    between atoms: C_30  and  C_31 
ROOT
HETATM    1  C   UNL     1       5.014  12.328  21.924  0.00  0.00     0.066 A 
HETATM    2  C   UNL     1       4.458  12.184  23.202  0.00  0.00     0.083 A 
HETATM    3  C   UNL     1       4.839  13.013  24.265  0.00  0.00     0.069 A 
HETATM    4  C   UNL     1       6.066  13.252  21.724  0.00  0.00     0.035 A 
HETATM    5  C   UNL     1       6.475  14.087  22.788  0.00  0.00     0.020 A 
HETATM    6  C   UNL     1       5.847  13.947  24.020  0.00  0.00     0.065 A 
HETATM    7  C   UNL     1       7.427  15.135  22.982  0.00  0.00     0.071 A 
HETATM    8  N   UNL     1       7.418  15.576  24.250  0.00  0.00    -0.178 NA
HETATM    9  N   UNL     1       6.446  14.865  24.840  0.00  0.00    -0.277 N 
HETATM   10  H   UNL     1       6.248  15.045  25.817  0.00  0.00     0.189 HD
ENDROOT
BRANCH   1  11
HETATM   11  C   UNL     1       4.619  11.499  20.744  0.00  0.00     0.260 C 
HETATM   12  N   UNL     1       5.361  10.353  20.383  0.00  0.00    -0.318 N 
HETATM   13  C   UNL     1       6.378   9.695  21.211  0.00  0.00     0.159 C 
HETATM   14  O   UNL     1       3.653  11.902  20.093  0.00  0.00    -0.267 OA
BRANCH  12  15
HETATM   15  C   UNL     1       4.945   9.610  19.242  0.00  0.00     0.037 C 
HETATM   16  C   UNL     1       4.540   8.282  19.373  0.00  0.00     0.030 C 
HETATM   17  C   UNL     1       4.007   7.592  18.285  0.00  0.00     0.011 C 
HETATM   18  C   UNL     1       3.802   8.248  17.062  0.00  0.00    -0.032 C 
HETATM   19  C   UNL     1       4.306   9.547  16.902  0.00  0.00     0.011 C 
HETATM   20  C   UNL     1       4.899  10.217  17.981  0.00  0.00     0.030 C 
BRANCH  18  21
HETATM   21  C   UNL     1       2.925   7.614  16.013  0.00  0.00     0.273 C 
BRANCH  21  22
HETATM   22  N   UNL     1       3.158   6.112  15.894  0.00  0.00    -0.063 N 
HETATM   23  C   UNL     1       2.006   5.321  16.501  0.00  0.00     0.261 C 
HETATM   24  C   UNL     1       2.238   3.816  16.321  0.00  0.00     0.195 C 
HETATM   25  O   UNL     1       2.406   3.489  14.940  0.00  0.00    -0.388 OA
HETATM   26  C   UNL     1       3.560   4.131  14.392  0.00  0.00     0.195 C 
HETATM   27  C   UNL     1       3.421   5.654  14.456  0.00  0.00     0.261 C 
HETATM   28  H   UNL     1       4.010   5.905  16.428  0.00  0.00     0.280 HD
ENDBRANCH  21  22
ENDBRANCH  18  21
ENDBRANCH  12  15
ENDBRANCH   1  11
BRANCH   2  29
HETATM   29  O   UNL     1       3.547  11.216  23.531  0.00  0.00    -0.360 OA
HETATM   30  H   UNL     1       2.934  11.095  22.786  0.00  0.00     0.217 HD
ENDBRANCH   2  29
BRANCH   7  31
HETATM   31  C   UNL     1       8.390  15.729  21.999  0.00  0.00     0.100 C 
BRANCH  31  32
HETATM   32  C   UNL     1       9.723  15.031  22.182  0.00  0.00    -0.052 A 
HETATM   33  C   UNL     1      10.803  15.673  22.810  0.00  0.00     0.007 A 
HETATM   34  C   UNL     1      12.019  15.015  22.991  0.00  0.00     0.001 A 
HETATM   35  C   UNL     1      12.168  13.696  22.574  0.00  0.00     0.007 A 
HETATM   36  C   UNL     1      11.099  13.018  21.977  0.00  0.00    -0.061 A 
HETATM   37  C   UNL     1       9.878  13.689  21.796  0.00  0.00     0.014 A 
HETATM   38  C   UNL     1      11.238  11.568  21.619  0.00  0.00     0.048 C 
ENDBRANCH  31  32
ENDBRANCH   7  31
TORSDOF 7
ENDMDL
MODEL 7
REMARK VINA RESULT:    -8.271      2.608      5.135
REMARK INTER + INTRA:         -12.553
REMARK INTER:                 -11.742
REMARK INTRA:                  -0.811
REMARK UNBOUND:                -1.139
REMARK  7 active torsions:
REMARK  status: ('A' for Active; 'I' for Inactive)
REMARK    1  A    between atoms: N_6  and  C_8 
REMARK    2  A    between atoms: C_8  and  C_9 
REMARK    3  A    between atoms: C_14  and  N_15 
REMARK       I    between atoms: N_15  and  C_17 
REMARK    4  A    between atoms: C_17  and  C_19 
REMARK    5  A    between atoms: C_20  and  O_22 
REMARK    6  A    between atoms: C_26  and  C_30 
REMARK    7  A    between atoms: C_30  and  C_31 
ROOT
HETATM    1  C   UNL     1       5.547  12.915  22.450  0.00  0.00     0.066 A 
HETATM    2  C   UNL     1       4.777  13.954  22.989  0.00  0.00     0.083 A 
HETATM    3  C   UNL     1       5.269  14.781  24.007  0.00  0.00     0.069 A 
HETATM    4  C   UNL     1       6.806  12.617  23.021  0.00  0.00     0.035 A 
HETATM    5  C   UNL     1       7.315  13.430  24.058  0.00  0.00     0.020 A 
HETATM    6  C   UNL     1       6.536  14.487  24.514  0.00  0.00     0.065 A 
HETATM    7  C   UNL     1       8.508  13.493  24.842  0.00  0.00     0.071 A 
HETATM    8  N   UNL     1       8.450  14.486  25.744  0.00  0.00    -0.178 NA
HETATM    9  N   UNL     1       7.270  15.078  25.507  0.00  0.00    -0.277 N 
HETATM   10  H   UNL     1       7.016  15.880  26.072  0.00  0.00     0.189 HD
ENDROOT
BRANCH   1  11
HETATM   11  C   UNL     1       5.090  12.028  21.338  0.00  0.00     0.260 C 
HETATM   12  N   UNL     1       5.926  11.767  20.229  0.00  0.00    -0.318 N 
HETATM   13  C   UNL     1       7.358  12.073  20.146  0.00  0.00     0.159 C 
HETATM   14  O   UNL     1       3.942  11.587  21.428  0.00  0.00    -0.267 OA
BRANCH  12  15
HETATM   15  C   UNL     1       5.431  10.924  19.194  0.00  0.00     0.037 C 
HETATM   16  C   UNL     1       5.798   9.579  19.143  0.00  0.00     0.030 C 
HETATM   17  C   UNL     1       5.215   8.720  18.212  0.00  0.00     0.011 C 
HETATM   18  C   UNL     1       4.196   9.181  17.364  0.00  0.00    -0.032 C 
HETATM   19  C   UNL     1       3.904  10.552  17.346  0.00  0.00     0.011 C 
HETATM   20  C   UNL     1       4.538  11.426  18.239  0.00  0.00     0.030 C 
BRANCH  18  21
HETATM   21  C   UNL     1       3.344   8.188  16.616  0.00  0.00     0.273 C 
BRANCH  21  22
HETATM   22  N   UNL     1       3.121   6.903  17.405  0.00  0.00    -0.063 N 
HETATM   23  C   UNL     1       1.835   6.967  18.220  0.00  0.00     0.261 C 
HETATM   24  C   UNL     1       1.606   5.646  18.962  0.00  0.00     0.195 C 
HETATM   25  O   UNL     1       1.572   4.548  18.047  0.00  0.00    -0.388 OA
HETATM   26  C   UNL     1       2.821   4.403  17.366  0.00  0.00     0.195 C 
HETATM   27  C   UNL     1       3.137   5.646  16.530  0.00  0.00     0.261 C 
HETATM   28  H   UNL     1       3.912   6.819  18.055  0.00  0.00     0.280 HD
ENDBRANCH  21  22
ENDBRANCH  18  21
ENDBRANCH  12  15
ENDBRANCH   1  11
BRANCH   2  29
HETATM   29  O   UNL     1       3.488  14.222  22.610  0.00  0.00    -0.360 OA
HETATM   30  H   UNL     1       3.227  15.084  22.973  0.00  0.00     0.217 HD
ENDBRANCH   2  29
BRANCH   7  31
HETATM   31  C   UNL     1       9.718  12.610  24.791  0.00  0.00     0.100 C 
BRANCH  31  32
HETATM   32  C   UNL     1      10.906  13.478  24.424  0.00  0.00    -0.052 A 
HETATM   33  C   UNL     1      10.991  14.105  23.170  0.00  0.00     0.007 A 
HETATM   34  C   UNL     1      12.078  14.918  22.850  0.00  0.00     0.001 A 
HETATM   35  C   UNL     1      13.084  15.140  23.786  0.00  0.00     0.007 A 
HETATM   36  C   UNL     1      13.008  14.557  25.056  0.00  0.00    -0.061 A 
HETATM   37  C   UNL     1      11.912  13.738  25.370  0.00  0.00     0.014 A 
HETATM   38  C   UNL     1      14.046  14.880  26.090  0.00  0.00     0.048 C 
ENDBRANCH  31  32
ENDBRANCH   7  31
TORSDOF 7
ENDMDL
MODEL 8
REMARK VINA RESULT:    -8.220      5.198      8.368
REMARK INTER + INTRA:         -12.482
REMARK INTER:                 -11.221
REMARK INTRA:                  -1.261
REMARK UNBOUND:                -1.139
REMARK  7 active torsions:
REMARK  status: ('A' for Active; 'I' for Inactive)
REMARK    1  A    between atoms: N_6  and  C_8 
REMARK    2  A    between atoms: C_8  and  C_9 
REMARK    3  A    between atoms: C_14  and  N_15 
REMARK       I    between atoms: N_15  and  C_17 
REMARK    4  A    between atoms: C_17  and  C_19 
REMARK    5  A    between atoms: C_20  and  O_22 
REMARK    6  A    between atoms: C_26  and  C_30 
REMARK    7  A    between atoms: C_30  and  C_31 
ROOT
HETATM    1  C   UNL     1       6.699  13.433  23.533  0.00  0.00     0.066 A 
HETATM    2  C   UNL     1       6.132  14.675  23.218  0.00  0.00     0.083 A 
HETATM    3  C   UNL     1       6.902  15.722  22.695  0.00  0.00     0.069 A 
HETATM    4  C   UNL     1       8.099  13.263  23.431  0.00  0.00     0.035 A 
HETATM    5  C   UNL     1       8.896  14.312  22.920  0.00  0.00     0.020 A 
HETATM    6  C   UNL     1       8.274  15.503  22.563  0.00  0.00     0.065 A 
HETATM    7  C   UNL     1      10.279  14.521  22.628  0.00  0.00     0.071 A 
HETATM    8  N   UNL     1      10.500  15.764  22.170  0.00  0.00    -0.178 NA
HETATM    9  N   UNL     1       9.280  16.318  22.118  0.00  0.00    -0.277 N 
HETATM   10  H   UNL     1       9.201  17.270  21.779  0.00  0.00     0.189 HD
ENDROOT
BRANCH   1  11
HETATM   11  C   UNL     1       5.920  12.269  24.056  0.00  0.00     0.260 C 
HETATM   12  N   UNL     1       5.287  11.366  23.173  0.00  0.00    -0.318 N 
HETATM   13  C   UNL     1       5.517  11.279  21.727  0.00  0.00     0.159 C 
HETATM   14  O   UNL     1       5.829  12.180  25.283  0.00  0.00    -0.267 OA
BRANCH  12  15
HETATM   15  C   UNL     1       4.548  10.283  23.729  0.00  0.00     0.037 C 
HETATM   16  C   UNL     1       5.171   9.061  23.985  0.00  0.00     0.030 C 
HETATM   17  C   UNL     1       4.488   8.043  24.650  0.00  0.00     0.011 C 
HETATM   18  C   UNL     1       3.191   8.261  25.137  0.00  0.00    -0.032 C 
HETATM   19  C   UNL     1       2.532   9.449  24.789  0.00  0.00     0.011 C 
HETATM   20  C   UNL     1       3.198  10.446  24.065  0.00  0.00     0.030 C 
BRANCH  18  21
HETATM   21  C   UNL     1       2.599   7.301  26.137  0.00  0.00     0.273 C 
BRANCH  21  22
HETATM   22  N   UNL     1       2.943   7.674  27.574  0.00  0.00    -0.063 N 
HETATM   23  C   UNL     1       1.790   7.364  28.520  0.00  0.00     0.261 C 
HETATM   24  C   UNL     1       2.179   7.698  29.965  0.00  0.00     0.195 C 
HETATM   25  O   UNL     1       3.357   6.987  30.351  0.00  0.00    -0.388 OA
HETATM   26  C   UNL     1       4.477   7.364  29.547  0.00  0.00     0.195 C 
HETATM   27  C   UNL     1       4.235   7.020  28.075  0.00  0.00     0.261 C 
HETATM   28  H   UNL     1       3.105   8.688  27.581  0.00  0.00     0.280 HD
ENDBRANCH  21  22
ENDBRANCH  18  21
ENDBRANCH  12  15
ENDBRANCH   1  11
BRANCH   2  29
HETATM   29  O   UNL     1       4.815  14.986  23.429  0.00  0.00    -0.360 OA
HETATM   30  H   UNL     1       4.264  14.249  23.115  0.00  0.00     0.217 HD
ENDBRANCH   2  29
BRANCH   7  31
HETATM   31  C   UNL     1      11.433  13.581  22.800  0.00  0.00     0.100 C 
BRANCH  31  32
HETATM   32  C   UNL     1      12.244  14.059  23.988  0.00  0.00    -0.052 A 
HETATM   33  C   UNL     1      13.491  14.681  23.818  0.00  0.00     0.007 A 
HETATM   34  C   UNL     1      14.219  15.135  24.917  0.00  0.00     0.001 A 
HETATM   35  C   UNL     1      13.702  15.001  26.202  0.00  0.00     0.007 A 
HETATM   36  C   UNL     1      12.445  14.417  26.400  0.00  0.00    -0.061 A 
HETATM   37  C   UNL     1      11.719  13.960  25.289  0.00  0.00     0.014 A 
HETATM   38  C   UNL     1      11.853  14.364  27.777  0.00  0.00     0.048 C 
ENDBRANCH  31  32
ENDBRANCH   7  31
TORSDOF 7
ENDMDL
MODEL 9
REMARK VINA RESULT:    -8.177      2.365      4.711
REMARK INTER + INTRA:         -12.423
REMARK INTER:                 -11.284
REMARK INTRA:                  -1.139
REMARK UNBOUND:                -1.139
REMARK  7 active torsions:
REMARK  status: ('A' for Active; 'I' for Inactive)
REMARK    1  A    between atoms: N_6  and  C_8 
REMARK    2  A    between atoms: C_8  and  C_9 
REMARK    3  A    between atoms: C_14  and  N_15 
REMARK       I    between atoms: N_15  and  C_17 
REMARK    4  A    between atoms: C_17  and  C_19 
REMARK    5  A    between atoms: C_20  and  O_22 
REMARK    6  A    between atoms: C_26  and  C_30 
REMARK    7  A    between atoms: C_30  and  C_31 
ROOT
HETATM    1  C   UNL     1       5.077  12.273  21.188  0.00  0.00     0.066 A 
HETATM    2  C   UNL     1       4.093  12.737  22.070  0.00  0.00     0.083 A 
HETATM    3  C   UNL     1       4.322  13.828  22.918  0.00  0.00     0.069 A 
HETATM    4  C   UNL     1       6.371  12.841  21.231  0.00  0.00     0.035 A 
HETATM    5  C   UNL     1       6.628  13.933  22.089  0.00  0.00     0.020 A 
HETATM    6  C   UNL     1       5.598  14.395  22.900  0.00  0.00     0.065 A 
HETATM    7  C   UNL     1       7.736  14.784  22.389  0.00  0.00     0.071 A 
HETATM    8  N   UNL     1       7.426  15.674  23.346  0.00  0.00    -0.178 NA
HETATM    9  N   UNL     1       6.134  15.434  23.613  0.00  0.00    -0.277 N 
HETATM   10  H   UNL     1       5.674  16.009  24.309  0.00  0.00     0.189 HD
ENDROOT
BRANCH   1  11
HETATM   11  C   UNL     1       4.875  11.140  20.234  0.00  0.00     0.260 C 
HETATM   12  N   UNL     1       5.573   9.923  20.398  0.00  0.00    -0.318 N 
HETATM   13  C   UNL     1       6.323   9.520  21.592  0.00  0.00     0.159 C 
HETATM   14  O   UNL     1       4.113  11.352  19.288  0.00  0.00    -0.267 OA
BRANCH  12  15
HETATM   15  C   UNL     1       5.351   8.883  19.450  0.00  0.00     0.037 C 
HETATM   16  C   UNL     1       4.494   7.825  19.752  0.00  0.00     0.030 C 
HETATM   17  C   UNL     1       4.170   6.877  18.782  0.00  0.00     0.011 C 
HETATM   18  C   UNL     1       4.641   7.018  17.468  0.00  0.00    -0.032 C 
HETATM   19  C   UNL     1       5.583   8.020  17.195  0.00  0.00     0.011 C 
HETATM   20  C   UNL     1       5.957   8.934  18.189  0.00  0.00     0.030 C 
BRANCH  18  21
HETATM   21  C   UNL     1       4.022   6.202  16.362  0.00  0.00     0.273 C 
BRANCH  21  22
HETATM   22  N   UNL     1       3.234   5.010  16.892  0.00  0.00    -0.063 N 
HETATM   23  C   UNL     1       1.867   4.906  16.228  0.00  0.00     0.261 C 
HETATM   24  C   UNL     1       1.117   3.670  16.738  0.00  0.00     0.195 C 
HETATM   25  O   UNL     1       1.881   2.483  16.514  0.00  0.00    -0.388 OA
HETATM   26  C   UNL     1       3.115   2.517  17.235  0.00  0.00     0.195 C 
HETATM   27  C   UNL     1       3.991   3.683  16.768  0.00  0.00     0.261 C 
HETATM   28  H   UNL     1       3.095   5.175  17.897  0.00  0.00     0.280 HD
ENDBRANCH  21  22
ENDBRANCH  18  21
ENDBRANCH  12  15
ENDBRANCH   1  11
BRANCH   2  29
HETATM   29  O   UNL     1       2.862  12.153  22.213  0.00  0.00    -0.360 OA
HETATM   30  H   UNL     1       2.535  12.326  23.112  0.00  0.00     0.217 HD
ENDBRANCH   2  29
BRANCH   7  31
HETATM   31  C   UNL     1       9.121  14.768  21.815  0.00  0.00     0.100 C 
BRANCH  31  32
HETATM   32  C   UNL     1      10.058  14.252  22.889  0.00  0.00    -0.052 A 
HETATM   33  C   UNL     1      10.025  12.911  23.305  0.00  0.00     0.007 A 
HETATM   34  C   UNL     1      10.906  12.442  24.279  0.00  0.00     0.001 A 
HETATM   35  C   UNL     1      11.853  13.298  24.835  0.00  0.00     0.007 A 
HETATM   36  C   UNL     1      11.933  14.631  24.415  0.00  0.00    -0.061 A 
HETATM   37  C   UNL     1      11.041  15.096  23.435  0.00  0.00     0.014 A 
HETATM   38  C   UNL     1      13.018  15.519  24.948  0.00  0.00     0.048 C 
ENDBRANCH  31  32
ENDBRANCH   7  31
TORSDOF 7
ENDMDL
