MODEL 1
REMARK VINA RESULT:    -7.850      0.000      0.000
REMARK INTER + INTRA:         -12.826
REMARK INTER:                 -11.834
REMARK INTRA:                  -0.992
REMARK UNBOUND:                -1.076
REMARK  9 active torsions:
REMARK  status: ('A' for Active; 'I' for Inactive)
REMARK    1  A    between atoms: O_2  and  C_3 
REMARK    2  A    between atoms: C_8  and  S_9 
REMARK    3  A    between atoms: S_9  and  C_10 
REMARK    4  A    between atoms: C_13  and  N_14 
REMARK    5  A    between atoms: N_19  and  C_20 
REMARK    6  A    between atoms: C_20  and  C_21 
REMARK    7  A    between atoms: C_21  and  N_22 
REMARK    8  A    between atoms: N_22  and  C_23 
REMARK    9  A    between atoms: C_23  and  C_24 
ROOT
HETATM    1  C   UNL     1      -1.313  12.903  23.270  0.00  0.00     0.176 A 
HETATM    2  N   UNL     1      -2.534  13.040  23.761  0.00  0.00    -0.217 NA
HETATM    3  C   UNL     1      -2.541  12.290  24.924  0.00  0.00     0.145 A 
HETATM    4  C   UNL     1      -3.534  11.985  25.877  0.00  0.00     0.135 A 
HETATM    5  N   UNL     1      -3.224  11.145  26.892  0.00  0.00    -0.228 NA
HETATM    6  C   UNL     1      -1.969  10.661  26.969  0.00  0.00     0.237 A 
HETATM    7  N   UNL     1      -0.937  10.908  26.143  0.00  0.00    -0.222 NA
HETATM    8  C   UNL     1      -1.299  11.718  25.137  0.00  0.00     0.165 A 
HETATM    9  N   UNL     1      -0.519  12.133  24.087  0.00  0.00    -0.307 N 
ENDROOT
BRANCH   1  10
HETATM   10  S   UNL     1      -0.857  13.359  21.654  0.00  0.00    -0.051 SA
BRANCH  10  11
HETATM   11  C   UNL     1      -2.286  14.127  20.896  0.00  0.00     0.027 A 
HETATM   12  C   UNL     1      -2.284  15.480  20.479  0.00  0.00     0.023 A 
HETATM   13  C   UNL     1      -3.362  16.021  19.757  0.00  0.00     0.022 A 
HETATM   14  I   UNL     1      -0.695  16.821  20.847  0.00  0.00    -0.043 I 
HETATM   15  C   UNL     1      -4.441  15.216  19.415  0.00  0.00     0.038 A 
HETATM   16  C   UNL     1      -4.452  13.879  19.795  0.00  0.00     0.069 A 
HETATM   17  C   UNL     1      -3.408  13.361  20.575  0.00  0.00     0.057 A 
BRANCH  16  18
HETATM   18  O   UNL     1      -5.506  13.127  19.358  0.00  0.00    -0.356 OA
HETATM   19  C   UNL     1      -5.913  13.446  18.025  0.00  0.00     0.210 C 
ENDBRANCH  16  18
ENDBRANCH  10  11
ENDBRANCH   1  10
BRANCH   9  20
HETATM   20  C   UNL     1       0.887  11.804  23.970  0.00  0.00     0.163 C 
BRANCH  20  21
HETATM   21  C   UNL     1       1.853  12.871  24.526  0.00  0.00     0.289 C 
BRANCH  21  22
HETATM   22  N   UNL     1       2.065  14.066  23.707  0.00  0.00     0.085 N 
HETATM   23  H   UNL     1       1.679  14.883  24.179  0.00  0.00     0.315 HD
BRANCH  22  24
HETATM   24  C   UNL     1       3.468  14.278  23.355  0.00  0.00     0.277 C 
BRANCH  24  25
HETATM   25  C   UNL     1       3.676  14.836  21.926  0.00  0.00    -0.025 C 
HETATM   26  C   UNL     1       2.819  14.092  20.884  0.00  0.00     0.016 C 
HETATM   27  C   UNL     1       3.252  16.316  21.930  0.00  0.00     0.016 C 
HETATM   28  C   UNL     1       5.158  14.738  21.534  0.00  0.00     0.016 C 
ENDBRANCH  24  25
ENDBRANCH  22  24
ENDBRANCH  21  22
ENDBRANCH  20  21
ENDBRANCH   9  20
BRANCH   4  29
HETATM   29  N   UNL     1      -4.839  12.460  25.828  0.00  0.00    -0.285 NA
HETATM   30  H   UNL     1      -5.294  12.484  26.733  0.00  0.00     0.125 HD
HETATM   31  H   UNL     1      -4.900  13.298  25.259  0.00  0.00     0.125 HD
ENDBRANCH   4  29
TORSDOF 9
ENDMDL
MODEL 2
REMARK VINA RESULT:    -7.777      2.381      5.201
REMARK INTER + INTRA:         -12.718
REMARK INTER:                 -11.266
REMARK INTRA:                  -1.452
REMARK UNBOUND:                -1.076
REMARK  9 active torsions:
REMARK  status: ('A' for Active; 'I' for Inactive)
REMARK    1  A    between atoms: O_2  and  C_3 
REMARK    2  A    between atoms: C_8  and  S_9 
REMARK    3  A    between atoms: S_9  and  C_10 
REMARK    4  A    between atoms: C_13  and  N_14 
REMARK    5  A    between atoms: N_19  and  C_20 
REMARK    6  A    between atoms: C_20  and  C_21 
REMARK    7  A    between atoms: C_21  and  N_22 
REMARK    8  A    between atoms: N_22  and  C_23 
REMARK    9  A    between atoms: C_23  and  C_24 
ROOT
HETATM    1  C   UNL     1      -0.084  12.686  23.880  0.00  0.00     0.176 A 
HETATM    2  N   UNL     1      -0.442  13.239  25.028  0.00  0.00    -0.217 NA
HETATM    3  C   UNL     1      -1.789  12.948  25.163  0.00  0.00     0.145 A 
HETATM    4  C   UNL     1      -2.763  13.282  26.125  0.00  0.00     0.135 A 
HETATM    5  N   UNL     1      -4.041  12.883  25.922  0.00  0.00    -0.228 NA
HETATM    6  C   UNL     1      -4.322  12.152  24.825  0.00  0.00     0.237 A 
HETATM    7  N   UNL     1      -3.474  11.747  23.864  0.00  0.00    -0.222 NA
HETATM    8  C   UNL     1      -2.229  12.192  24.090  0.00  0.00     0.165 A 
HETATM    9  N   UNL     1      -1.128  12.014  23.290  0.00  0.00    -0.307 N 
ENDROOT
BRANCH   1  10
HETATM   10  S   UNL     1       1.413  13.029  23.062  0.00  0.00    -0.051 SA
BRANCH  10  11
HETATM   11  C   UNL     1       1.296  14.695  22.417  0.00  0.00     0.027 A 
HETATM   12  C   UNL     1       2.441  15.457  22.082  0.00  0.00     0.023 A 
HETATM   13  C   UNL     1       2.324  16.704  21.443  0.00  0.00     0.022 A 
HETATM   14  I   UNL     1       4.422  14.829  22.456  0.00  0.00    -0.043 I 
HETATM   15  C   UNL     1       1.070  17.194  21.103  0.00  0.00     0.038 A 
HETATM   16  C   UNL     1      -0.065  16.451  21.403  0.00  0.00     0.069 A 
HETATM   17  C   UNL     1       0.050  15.241  22.102  0.00  0.00     0.057 A 
BRANCH  16  18
HETATM   18  O   UNL     1      -1.259  16.956  20.970  0.00  0.00    -0.356 OA
HETATM   19  C   UNL     1      -1.248  17.327  19.590  0.00  0.00     0.210 C 
ENDBRANCH  16  18
ENDBRANCH  10  11
ENDBRANCH   1  10
BRANCH   9  20
HETATM   20  C   UNL     1      -1.151  11.212  22.084  0.00  0.00     0.163 C 
BRANCH  20  21
HETATM   21  C   UNL     1      -1.544  11.977  20.803  0.00  0.00     0.289 C 
BRANCH  21  22
HETATM   22  N   UNL     1      -2.916  12.482  20.727  0.00  0.00     0.085 N 
HETATM   23  H   UNL     1      -3.383  12.356  21.625  0.00  0.00     0.315 HD
BRANCH  22  24
HETATM   24  C   UNL     1      -2.992  13.874  20.288  0.00  0.00     0.277 C 
BRANCH  24  25
HETATM   25  C   UNL     1      -4.426  14.454  20.291  0.00  0.00    -0.025 C 
HETATM   26  C   UNL     1      -5.168  14.157  21.609  0.00  0.00     0.016 C 
HETATM   27  C   UNL     1      -4.318  15.983  20.135  0.00  0.00     0.016 C 
HETATM   28  C   UNL     1      -5.228  13.884  19.113  0.00  0.00     0.016 C 
ENDBRANCH  24  25
ENDBRANCH  22  24
ENDBRANCH  21  22
ENDBRANCH  20  21
ENDBRANCH   9  20
BRANCH   4  29
HETATM   29  N   UNL     1      -2.512  14.038  27.264  0.00  0.00    -0.285 NA
HETATM   30  H   UNL     1      -2.589  13.507  28.124  0.00  0.00     0.125 HD
HETATM   31  H   UNL     1      -1.683  14.609  27.146  0.00  0.00     0.125 HD
ENDBRANCH   4  29
TORSDOF 9
ENDMDL
MODEL 3
REMARK VINA RESULT:    -7.549      1.433      1.804
REMARK INTER + INTRA:         -12.375
REMARK INTER:                 -11.175
REMARK INTRA:                  -1.201
REMARK UNBOUND:                -1.076
REMARK  9 active torsions:
REMARK  status: ('A' for Active; 'I' for Inactive)
REMARK    1  A    between atoms: O_2  and  C_3 
REMARK    2  A    between atoms: C_8  and  S_9 
REMARK    3  A    between atoms: S_9  and  C_10 
REMARK    4  A    between atoms: C_13  and  N_14 
REMARK    5  A    between atoms: N_19  and  C_20 
REMARK    6  A    between atoms: C_20  and  C_21 
REMARK    7  A    between atoms: C_21  and  N_22 
REMARK    8  A    between atoms: N_22  and  C_23 
REMARK    9  A    between atoms: C_23  and  C_24 
ROOT
HETATM    1  C   UNL     1      -2.055  13.601  23.632  0.00  0.00     0.176 A 
HETATM    2  N   UNL     1      -2.906  12.688  24.071  0.00  0.00    -0.217 NA
HETATM    3  C   UNL     1      -2.923  12.842  25.446  0.00  0.00     0.145 A 
HETATM    4  C   UNL     1      -3.577  12.159  26.492  0.00  0.00     0.135 A 
HETATM    5  N   UNL     1      -3.321  12.529  27.769  0.00  0.00    -0.228 NA
HETATM    6  C   UNL     1      -2.477  13.556  27.986  0.00  0.00     0.237 A 
HETATM    7  N   UNL     1      -1.827  14.298  27.073  0.00  0.00    -0.222 NA
HETATM    8  C   UNL     1      -2.086  13.876  25.826  0.00  0.00     0.165 A 
HETATM    9  N   UNL     1      -1.555  14.366  24.660  0.00  0.00    -0.307 N 
ENDROOT
BRANCH   1  10
HETATM   10  S   UNL     1      -1.402  13.628  22.020  0.00  0.00    -0.051 SA
BRANCH  10  11
HETATM   11  C   UNL     1      -2.670  14.294  20.945  0.00  0.00     0.027 A 
HETATM   12  C   UNL     1      -2.542  15.556  20.318  0.00  0.00     0.023 A 
HETATM   13  C   UNL     1      -3.480  15.995  19.366  0.00  0.00     0.022 A 
HETATM   14  I   UNL     1      -0.956  16.898  20.691  0.00  0.00    -0.043 I 
HETATM   15  C   UNL     1      -4.539  15.171  19.005  0.00  0.00     0.038 A 
HETATM   16  C   UNL     1      -4.669  13.918  19.593  0.00  0.00     0.069 A 
HETATM   17  C   UNL     1      -3.773  13.513  20.592  0.00  0.00     0.057 A 
BRANCH  16  18
HETATM   18  O   UNL     1      -5.688  13.131  19.135  0.00  0.00    -0.356 OA
HETATM   19  C   UNL     1      -6.076  13.435  17.793  0.00  0.00     0.210 C 
ENDBRANCH  16  18
ENDBRANCH  10  11
ENDBRANCH   1  10
BRANCH   9  20
HETATM   20  C   UNL     1      -0.669  15.511  24.616  0.00  0.00     0.163 C 
BRANCH  20  21
HETATM   21  C   UNL     1       0.835  15.173  24.689  0.00  0.00     0.289 C 
BRANCH  21  22
HETATM   22  N   UNL     1       1.656  15.544  23.535  0.00  0.00     0.085 N 
HETATM   23  H   UNL     1       2.359  16.228  23.815  0.00  0.00     0.315 HD
BRANCH  22  24
HETATM   24  C   UNL     1       2.275  14.395  22.878  0.00  0.00     0.277 C 
BRANCH  24  25
HETATM   25  C   UNL     1       3.012  14.748  21.563  0.00  0.00    -0.025 C 
HETATM   26  C   UNL     1       2.904  16.247  21.224  0.00  0.00     0.016 C 
HETATM   27  C   UNL     1       4.501  14.401  21.749  0.00  0.00     0.016 C 
HETATM   28  C   UNL     1       2.443  13.918  20.403  0.00  0.00     0.016 C 
ENDBRANCH  24  25
ENDBRANCH  22  24
ENDBRANCH  21  22
ENDBRANCH  20  21
ENDBRANCH   9  20
BRANCH   4  29
HETATM   29  N   UNL     1      -4.449  11.092  26.307  0.00  0.00    -0.285 NA
HETATM   30  H   UNL     1      -3.981  10.197  26.242  0.00  0.00     0.125 HD
HETATM   31  H   UNL     1      -5.239  11.155  26.939  0.00  0.00     0.125 HD
ENDBRANCH   4  29
TORSDOF 9
ENDMDL
MODEL 4
REMARK VINA RESULT:    -7.407      3.222      6.040
REMARK INTER + INTRA:         -12.163
REMARK INTER:                 -11.098
REMARK INTRA:                  -1.065
REMARK UNBOUND:                -1.076
REMARK  9 active torsions:
REMARK  status: ('A' for Active; 'I' for Inactive)
REMARK    1  A    between atoms: O_2  and  C_3 
REMARK    2  A    between atoms: C_8  and  S_9 
REMARK    3  A    between atoms: S_9  and  C_10 
REMARK    4  A    between atoms: C_13  and  N_14 
REMARK    5  A    between atoms: N_19  and  C_20 
REMARK    6  A    between atoms: C_20  and  C_21 
REMARK    7  A    between atoms: C_21  and  N_22 
REMARK    8  A    between atoms: N_22  and  C_23 
REMARK    9  A    between atoms: C_23  and  C_24 
ROOT
HETATM    1  C   UNL     1      -0.718  14.297  22.159  0.00  0.00     0.176 A 
HETATM    2  N   UNL     1      -1.720  13.592  21.659  0.00  0.00    -0.217 NA
HETATM    3  C   UNL     1      -2.433  14.484  20.877  0.00  0.00     0.145 A 
HETATM    4  C   UNL     1      -3.618  14.380  20.120  0.00  0.00     0.135 A 
HETATM    5  N   UNL     1      -4.096  15.488  19.507  0.00  0.00    -0.228 NA
HETATM    6  C   UNL     1      -3.401  16.638  19.618  0.00  0.00     0.237 A 
HETATM    7  N   UNL     1      -2.249  16.845  20.279  0.00  0.00    -0.222 NA
HETATM    8  C   UNL     1      -1.831  15.730  20.895  0.00  0.00     0.165 A 
HETATM    9  N   UNL     1      -0.727  15.592  21.699  0.00  0.00    -0.307 N 
ENDROOT
BRANCH   1  10
HETATM   10  S   UNL     1       0.290  13.759  23.471  0.00  0.00    -0.051 SA
BRANCH  10  11
HETATM   11  C   UNL     1      -0.773  12.934  24.653  0.00  0.00     0.027 A 
HETATM   12  C   UNL     1      -0.806  11.524  24.783  0.00  0.00     0.023 A 
HETATM   13  C   UNL     1      -1.536  10.906  25.814  0.00  0.00     0.022 A 
HETATM   14  I   UNL     1       0.231  10.201  23.507  0.00  0.00    -0.043 I 
HETATM   15  C   UNL     1      -2.217  11.681  26.744  0.00  0.00     0.038 A 
HETATM   16  C   UNL     1      -2.177  13.067  26.647  0.00  0.00     0.069 A 
HETATM   17  C   UNL     1      -1.507  13.679  25.578  0.00  0.00     0.057 A 
BRANCH  16  18
HETATM   18  O   UNL     1      -2.804  13.768  27.639  0.00  0.00    -0.356 OA
HETATM   19  C   UNL     1      -2.016  14.844  28.153  0.00  0.00     0.210 C 
ENDBRANCH  16  18
ENDBRANCH  10  11
ENDBRANCH   1  10
BRANCH   9  20
HETATM   20  C   UNL     1       0.220  16.664  21.928  0.00  0.00     0.163 C 
BRANCH  20  21
HETATM   21  C   UNL     1       1.077  17.046  20.703  0.00  0.00     0.289 C 
BRANCH  21  22
HETATM   22  N   UNL     1       2.531  17.010  20.872  0.00  0.00     0.085 N 
HETATM   23  H   UNL     1       2.909  17.956  20.827  0.00  0.00     0.315 HD
BRANCH  22  24
HETATM   24  C   UNL     1       2.949  16.337  22.099  0.00  0.00     0.277 C 
BRANCH  24  25
HETATM   25  C   UNL     1       3.774  15.050  21.857  0.00  0.00    -0.025 C 
HETATM   26  C   UNL     1       5.177  15.359  21.299  0.00  0.00     0.016 C 
HETATM   27  C   UNL     1       3.942  14.334  23.211  0.00  0.00     0.016 C 
HETATM   28  C   UNL     1       3.030  14.122  20.886  0.00  0.00     0.016 C 
ENDBRANCH  24  25
ENDBRANCH  22  24
ENDBRANCH  21  22
ENDBRANCH  20  21
ENDBRANCH   9  20
BRANCH   4  29
HETATM   29  N   UNL     1      -4.364  13.215  19.988  0.00  0.00    -0.285 NA
HETATM   30  H   UNL     1      -5.019  13.067  20.747  0.00  0.00     0.125 HD
HETATM   31  H   UNL     1      -4.722  13.118  19.044  0.00  0.00     0.125 HD
ENDBRANCH   4  29
TORSDOF 9
ENDMDL
MODEL 5
REMARK VINA RESULT:    -7.405      2.658      5.241
REMARK INTER + INTRA:         -12.160
REMARK INTER:                 -11.102
REMARK INTRA:                  -1.058
REMARK UNBOUND:                -1.076
REMARK  9 active torsions:
REMARK  status: ('A' for Active; 'I' for Inactive)
REMARK    1  A    between atoms: O_2  and  C_3 
REMARK    2  A    between atoms: C_8  and  S_9 
REMARK    3  A    between atoms: S_9  and  C_10 
REMARK    4  A    between atoms: C_13  and  N_14 
REMARK    5  A    between atoms: N_19  and  C_20 
REMARK    6  A    between atoms: C_20  and  C_21 
REMARK    7  A    between atoms: C_21  and  N_22 
REMARK    8  A    between atoms: N_22  and  C_23 
REMARK    9  A    between atoms: C_23  and  C_24 
ROOT
HETATM    1  C   UNL     1      -1.156  11.540  24.874  0.00  0.00     0.176 A 
HETATM    2  N   UNL     1      -1.824  11.516  26.016  0.00  0.00    -0.217 NA
HETATM    3  C   UNL     1      -3.111  11.137  25.673  0.00  0.00     0.145 A 
HETATM    4  C   UNL     1      -4.302  10.972  26.406  0.00  0.00     0.135 A 
HETATM    5  N   UNL     1      -5.436  10.647  25.741  0.00  0.00    -0.228 NA
HETATM    6  C   UNL     1      -5.370  10.462  24.407  0.00  0.00     0.237 A 
HETATM    7  N   UNL     1      -4.290  10.558  23.613  0.00  0.00    -0.222 NA
HETATM    8  C   UNL     1      -3.199  10.912  24.310  0.00  0.00     0.165 A 
HETATM    9  N   UNL     1      -1.942  11.151  23.815  0.00  0.00    -0.307 N 
ENDROOT
BRANCH   1  10
HETATM   10  S   UNL     1       0.411  12.272  24.679  0.00  0.00    -0.051 SA
BRANCH  10  11
HETATM   11  C   UNL     1       0.194  13.725  23.656  0.00  0.00     0.027 A 
HETATM   12  C   UNL     1      -0.468  14.886  24.123  0.00  0.00     0.023 A 
HETATM   13  C   UNL     1      -0.499  16.064  23.357  0.00  0.00     0.022 A 
HETATM   14  I   UNL     1      -1.441  15.013  25.992  0.00  0.00    -0.043 I 
HETATM   15  C   UNL     1       0.153  16.112  22.131  0.00  0.00     0.038 A 
HETATM   16  C   UNL     1       0.828  14.990  21.665  0.00  0.00     0.069 A 
HETATM   17  C   UNL     1       0.798  13.795  22.399  0.00  0.00     0.057 A 
BRANCH  16  18
HETATM   18  O   UNL     1       1.511  15.131  20.490  0.00  0.00    -0.356 OA
HETATM   19  C   UNL     1       2.280  16.334  20.426  0.00  0.00     0.210 C 
ENDBRANCH  16  18
ENDBRANCH  10  11
ENDBRANCH   1  10
BRANCH   9  20
HETATM   20  C   UNL     1      -1.593  10.961  22.422  0.00  0.00     0.163 C 
BRANCH  20  21
HETATM   21  C   UNL     1      -2.392  11.829  21.428  0.00  0.00     0.289 C 
BRANCH  21  22
HETATM   22  N   UNL     1      -2.832  13.144  21.899  0.00  0.00     0.085 N 
HETATM   23  H   UNL     1      -2.326  13.395  22.748  0.00  0.00     0.315 HD
BRANCH  22  24
HETATM   24  C   UNL     1      -2.706  14.189  20.886  0.00  0.00     0.277 C 
BRANCH  24  25
HETATM   25  C   UNL     1      -4.026  14.944  20.597  0.00  0.00    -0.025 C 
HETATM   26  C   UNL     1      -4.859  14.254  19.499  0.00  0.00     0.016 C 
HETATM   27  C   UNL     1      -4.856  14.957  21.894  0.00  0.00     0.016 C 
HETATM   28  C   UNL     1      -3.724  16.390  20.178  0.00  0.00     0.016 C 
ENDBRANCH  24  25
ENDBRANCH  22  24
ENDBRANCH  21  22
ENDBRANCH  20  21
ENDBRANCH   9  20
BRANCH   4  29
HETATM   29  N   UNL     1      -4.410  11.160  27.779  0.00  0.00    -0.285 NA
HETATM   30  H   UNL     1      -3.740  10.620  28.313  0.00  0.00     0.125 HD
HETATM   31  H   UNL     1      -4.495  12.144  28.006  0.00  0.00     0.125 HD
ENDBRANCH   4  29
TORSDOF 9
ENDMDL
MODEL 6
REMARK VINA RESULT:    -7.349      1.152      1.317
REMARK INTER + INTRA:         -12.076
REMARK INTER:                 -11.126
REMARK INTRA:                  -0.950
REMARK UNBOUND:                -1.076
REMARK  9 active torsions:
REMARK  status: ('A' for Active; 'I' for Inactive)
REMARK    1  A    between atoms: O_2  and  C_3 
REMARK    2  A    between atoms: C_8  and  S_9 
REMARK    3  A    between atoms: S_9  and  C_10 
REMARK    4  A    between atoms: C_13  and  N_14 
REMARK    5  A    between atoms: N_19  and  C_20 
REMARK    6  A    between atoms: C_20  and  C_21 
REMARK    7  A    between atoms: C_21  and  N_22 
REMARK    8  A    between atoms: N_22  and  C_23 
REMARK    9  A    between atoms: C_23  and  C_24 
ROOT
HETATM    1  C   UNL     1      -2.609  12.560  23.146  0.00  0.00     0.176 A 
HETATM    2  N   UNL     1      -3.766  11.947  23.334  0.00  0.00    -0.217 NA
HETATM    3  C   UNL     1      -3.824  11.693  24.694  0.00  0.00     0.145 A 
HETATM    4  C   UNL     1      -4.756  11.034  25.520  0.00  0.00     0.135 A 
HETATM    5  N   UNL     1      -4.474  10.898  26.838  0.00  0.00    -0.228 NA
HETATM    6  C   UNL     1      -3.328  11.427  27.310  0.00  0.00     0.237 A 
HETATM    7  N   UNL     1      -2.387  12.102  26.627  0.00  0.00    -0.222 NA
HETATM    8  C   UNL     1      -2.693  12.185  25.324  0.00  0.00     0.165 A 
HETATM    9  N   UNL     1      -1.937  12.754  24.330  0.00  0.00    -0.307 N 
ENDROOT
BRANCH   1  10
HETATM   10  S   UNL     1      -1.880  12.804  21.586  0.00  0.00    -0.051 SA
BRANCH  10  11
HETATM   11  C   UNL     1      -2.848  14.048  20.735  0.00  0.00     0.027 A 
HETATM   12  C   UNL     1      -2.480  15.415  20.726  0.00  0.00     0.023 A 
HETATM   13  C   UNL     1      -3.172  16.348  19.934  0.00  0.00     0.022 A 
HETATM   14  I   UNL     1      -0.874  16.208  21.841  0.00  0.00    -0.043 I 
HETATM   15  C   UNL     1      -4.216  15.929  19.119  0.00  0.00     0.038 A 
HETATM   16  C   UNL     1      -4.577  14.587  19.097  0.00  0.00     0.069 A 
HETATM   17  C   UNL     1      -3.933  13.671  19.940  0.00  0.00     0.057 A 
BRANCH  16  18
HETATM   18  O   UNL     1      -5.560  14.233  18.217  0.00  0.00    -0.356 OA
HETATM   19  C   UNL     1      -6.155  12.967  18.514  0.00  0.00     0.210 C 
ENDBRANCH  16  18
ENDBRANCH  10  11
ENDBRANCH   1  10
BRANCH   9  20
HETATM   20  C   UNL     1      -0.691  13.447  24.586  0.00  0.00     0.163 C 
BRANCH  20  21
HETATM   21  C   UNL     1       0.579  12.669  24.183  0.00  0.00     0.289 C 
BRANCH  21  22
HETATM   22  N   UNL     1       1.371  13.217  23.080  0.00  0.00     0.085 N 
HETATM   23  H   UNL     1       0.776  13.779  22.472  0.00  0.00     0.315 HD
BRANCH  22  24
HETATM   24  C   UNL     1       2.530  13.983  23.531  0.00  0.00     0.277 C 
BRANCH  24  25
HETATM   25  C   UNL     1       3.305  14.679  22.386  0.00  0.00    -0.025 C 
HETATM   26  C   UNL     1       2.951  14.089  21.007  0.00  0.00     0.016 C 
HETATM   27  C   UNL     1       2.913  16.168  22.387  0.00  0.00     0.016 C 
HETATM   28  C   UNL     1       4.817  14.556  22.622  0.00  0.00     0.016 C 
ENDBRANCH  24  25
ENDBRANCH  22  24
ENDBRANCH  21  22
ENDBRANCH  20  21
ENDBRANCH   9  20
BRANCH   4  29
HETATM   29  N   UNL     1      -5.944  10.471  25.068  0.00  0.00    -0.285 NA
HETATM   30  H   UNL     1      -6.667  10.436  25.776  0.00  0.00     0.125 HD
HETATM   31  H   UNL     1      -6.202  10.846  24.162  0.00  0.00     0.125 HD
ENDBRANCH   4  29
TORSDOF 9
ENDMDL
MODEL 7
REMARK VINA RESULT:    -7.303      2.723      4.512
REMARK INTER + INTRA:         -12.008
REMARK INTER:                 -10.787
REMARK INTRA:                  -1.221
REMARK UNBOUND:                -1.076
REMARK  9 active torsions:
REMARK  status: ('A' for Active; 'I' for Inactive)
REMARK    1  A    between atoms: O_2  and  C_3 
REMARK    2  A    between atoms: C_8  and  S_9 
REMARK    3  A    between atoms: S_9  and  C_10 
REMARK    4  A    between atoms: C_13  and  N_14 
REMARK    5  A    between atoms: N_19  and  C_20 
REMARK    6  A    between atoms: C_20  and  C_21 
REMARK    7  A    between atoms: C_21  and  N_22 
REMARK    8  A    between atoms: N_22  and  C_23 
REMARK    9  A    between atoms: C_23  and  C_24 
ROOT
HETATM    1  C   UNL     1      -1.091  13.254  24.028  0.00  0.00     0.176 A 
HETATM    2  N   UNL     1      -1.275  13.981  25.118  0.00  0.00    -0.217 NA
HETATM    3  C   UNL     1      -2.052  13.193  25.950  0.00  0.00     0.145 A 
HETATM    4  C   UNL     1      -2.628  13.397  27.221  0.00  0.00     0.135 A 
HETATM    5  N   UNL     1      -3.408  12.421  27.744  0.00  0.00    -0.228 NA
HETATM    6  C   UNL     1      -3.575  11.283  27.042  0.00  0.00     0.237 A 
HETATM    7  N   UNL     1      -3.051  10.966  25.846  0.00  0.00    -0.222 NA
HETATM    8  C   UNL     1      -2.312  11.972  25.353  0.00  0.00     0.165 A 
HETATM    9  N   UNL     1      -1.677  12.015  24.138  0.00  0.00    -0.307 N 
ENDROOT
BRANCH   1  10
HETATM   10  S   UNL     1      -0.472  13.886  22.530  0.00  0.00    -0.051 SA
BRANCH  10  11
HETATM   11  C   UNL     1      -1.849  14.627  21.658  0.00  0.00     0.027 A 
HETATM   12  C   UNL     1      -1.736  15.867  20.984  0.00  0.00     0.023 A 
HETATM   13  C   UNL     1      -2.784  16.359  20.186  0.00  0.00     0.022 A 
HETATM   14  I   UNL     1      -0.020  17.094  21.058  0.00  0.00    -0.043 I 
HETATM   15  C   UNL     1      -3.943  15.611  20.023  0.00  0.00     0.038 A 
HETATM   16  C   UNL     1      -4.064  14.380  20.658  0.00  0.00     0.069 A 
HETATM   17  C   UNL     1      -3.047  13.925  21.509  0.00  0.00     0.057 A 
BRANCH  16  18
HETATM   18  O   UNL     1      -5.196  13.664  20.393  0.00  0.00    -0.356 OA
HETATM   19  C   UNL     1      -5.501  13.586  18.998  0.00  0.00     0.210 C 
ENDBRANCH  16  18
ENDBRANCH  10  11
ENDBRANCH   1  10
BRANCH   9  20
HETATM   20  C   UNL     1      -1.649  10.893  23.222  0.00  0.00     0.163 C 
BRANCH  20  21
HETATM   21  C   UNL     1      -0.575   9.829  23.530  0.00  0.00     0.289 C 
BRANCH  21  22
HETATM   22  N   UNL     1      -0.960   8.736  24.426  0.00  0.00     0.085 N 
HETATM   23  H   UNL     1      -0.914   7.847  23.928  0.00  0.00     0.315 HD
BRANCH  22  24
HETATM   24  C   UNL     1      -0.166   8.692  25.652  0.00  0.00     0.277 C 
BRANCH  24  25
HETATM   25  C   UNL     1       0.168   7.258  26.130  0.00  0.00    -0.025 C 
HETATM   26  C   UNL     1      -0.634   6.866  27.386  0.00  0.00     0.016 C 
HETATM   27  C   UNL     1      -0.206   6.283  24.997  0.00  0.00     0.016 C 
HETATM   28  C   UNL     1       1.670   7.137  26.422  0.00  0.00     0.016 C 
ENDBRANCH  24  25
ENDBRANCH  22  24
ENDBRANCH  21  22
ENDBRANCH  20  21
ENDBRANCH   9  20
BRANCH   4  29
HETATM   29  N   UNL     1      -2.483  14.558  27.970  0.00  0.00    -0.285 NA
HETATM   30  H   UNL     1      -2.679  14.429  28.955  0.00  0.00     0.125 HD
HETATM   31  H   UNL     1      -1.624  15.041  27.730  0.00  0.00     0.125 HD
ENDBRANCH   4  29
TORSDOF 9
ENDMDL
MODEL 8
REMARK VINA RESULT:    -7.270      2.603      5.810
REMARK INTER + INTRA:         -11.958
REMARK INTER:                 -10.855
REMARK INTRA:                  -1.103
REMARK UNBOUND:                -1.076
REMARK  9 active torsions:
REMARK  status: ('A' for Active; 'I' for Inactive)
REMARK    1  A    between atoms: O_2  and  C_3 
REMARK    2  A    between atoms: C_8  and  S_9 
REMARK    3  A    between atoms: S_9  and  C_10 
REMARK    4  A    between atoms: C_13  and  N_14 
REMARK    5  A    between atoms: N_19  and  C_20 
REMARK    6  A    between atoms: C_20  and  C_21 
REMARK    7  A    between atoms: C_21  and  N_22 
REMARK    8  A    between atoms: N_22  and  C_23 
REMARK    9  A    between atoms: C_23  and  C_24 
ROOT
HETATM    1  C   UNL     1      -1.229  14.476  23.866  0.00  0.00     0.176 A 
HETATM    2  N   UNL     1      -1.526  14.835  25.104  0.00  0.00    -0.217 NA
HETATM    3  C   UNL     1      -1.825  13.654  25.761  0.00  0.00     0.145 A 
HETATM    4  C   UNL     1      -2.256  13.351  27.068  0.00  0.00     0.135 A 
HETATM    5  N   UNL     1      -2.529  12.062  27.381  0.00  0.00    -0.228 NA
HETATM    6  C   UNL     1      -2.344  11.117  26.438  0.00  0.00     0.237 A 
HETATM    7  N   UNL     1      -1.907  11.282  25.178  0.00  0.00    -0.222 NA
HETATM    8  C   UNL     1      -1.680  12.576  24.904  0.00  0.00     0.165 A 
HETATM    9  N   UNL     1      -1.280  13.111  23.706  0.00  0.00    -0.307 N 
ENDROOT
BRANCH   1  10
HETATM   10  S   UNL     1      -1.107  15.588  22.534  0.00  0.00    -0.051 SA
BRANCH  10  11
HETATM   11  C   UNL     1       0.587  15.539  21.955  0.00  0.00     0.027 A 
HETATM   12  C   UNL     1       1.016  16.259  20.814  0.00  0.00     0.023 A 
HETATM   13  C   UNL     1       2.376  16.323  20.463  0.00  0.00     0.022 A 
HETATM   14  I   UNL     1      -0.284  17.329  19.541  0.00  0.00    -0.043 I 
HETATM   15  C   UNL     1       3.328  15.697  21.258  0.00  0.00     0.038 A 
HETATM   16  C   UNL     1       2.929  15.004  22.395  0.00  0.00     0.069 A 
HETATM   17  C   UNL     1       1.566  14.884  22.704  0.00  0.00     0.057 A 
BRANCH  16  18
HETATM   18  O   UNL     1       3.923  14.480  23.172  0.00  0.00    -0.356 OA
HETATM   19  C   UNL     1       5.233  14.727  22.656  0.00  0.00     0.210 C 
ENDBRANCH  16  18
ENDBRANCH  10  11
ENDBRANCH   1  10
BRANCH   9  20
HETATM   20  C   UNL     1      -0.953  12.301  22.550  0.00  0.00     0.163 C 
BRANCH  20  21
HETATM   21  C   UNL     1      -2.169  11.718  21.800  0.00  0.00     0.289 C 
BRANCH  21  22
HETATM   22  N   UNL     1      -3.317  12.607  21.605  0.00  0.00     0.085 N 
HETATM   23  H   UNL     1      -3.481  13.153  22.450  0.00  0.00     0.315 HD
BRANCH  22  24
HETATM   24  C   UNL     1      -3.176  13.477  20.439  0.00  0.00     0.277 C 
BRANCH  24  25
HETATM   25  C   UNL     1      -4.393  14.404  20.199  0.00  0.00    -0.025 C 
HETATM   26  C   UNL     1      -3.974  15.775  19.635  0.00  0.00     0.016 C 
HETATM   27  C   UNL     1      -5.312  13.719  19.170  0.00  0.00     0.016 C 
HETATM   28  C   UNL     1      -5.167  14.605  21.510  0.00  0.00     0.016 C 
ENDBRANCH  24  25
ENDBRANCH  22  24
ENDBRANCH  21  22
ENDBRANCH  20  21
ENDBRANCH   9  20
BRANCH   4  29
HETATM   29  N   UNL     1      -2.463  14.298  28.064  0.00  0.00    -0.285 NA
HETATM   30  H   UNL     1      -3.235  14.925  27.870  0.00  0.00     0.125 HD
HETATM   31  H   UNL     1      -2.436  13.871  28.983  0.00  0.00     0.125 HD
ENDBRANCH   4  29
TORSDOF 9
ENDMDL
MODEL 9
REMARK VINA RESULT:    -7.201      2.776      3.885
REMARK INTER + INTRA:         -11.855
REMARK INTER:                 -10.779
REMARK INTRA:                  -1.076
REMARK UNBOUND:                -1.076
REMARK  9 active torsions:
REMARK  status: ('A' for Active; 'I' for Inactive)
REMARK    1  A    between atoms: O_2  and  C_3 
REMARK    2  A    between atoms: C_8  and  S_9 
REMARK    3  A    between atoms: S_9  and  C_10 
REMARK    4  A    between atoms: C_13  and  N_14 
REMARK    5  A    between atoms: N_19  and  C_20 
REMARK    6  A    between atoms: C_20  and  C_21 
REMARK    7  A    between atoms: C_21  and  N_22 
REMARK    8  A    between atoms: N_22  and  C_23 
REMARK    9  A    between atoms: C_23  and  C_24 
ROOT
HETATM    1  C   UNL     1      -2.866  12.289  23.289  0.00  0.00     0.176 A 
HETATM    2  N   UNL     1      -4.065  11.743  23.164  0.00  0.00    -0.217 NA
HETATM    3  C   UNL     1      -4.391  11.295  24.432  0.00  0.00     0.145 A 
HETATM    4  C   UNL     1      -5.493  10.593  24.960  0.00  0.00     0.135 A 
HETATM    5  N   UNL     1      -5.473  10.240  26.268  0.00  0.00    -0.228 NA
HETATM    6  C   UNL     1      -4.415  10.605  27.018  0.00  0.00     0.237 A 
HETATM    7  N   UNL     1      -3.331  11.301  26.634  0.00  0.00    -0.222 NA
HETATM    8  C   UNL     1      -3.380  11.600  25.327  0.00  0.00     0.165 A 
HETATM    9  N   UNL     1      -2.423  12.252  24.591  0.00  0.00    -0.307 N 
ENDROOT
BRANCH   1  10
HETATM   10  S   UNL     1      -1.842  12.707  21.946  0.00  0.00    -0.051 SA
BRANCH  10  11
HETATM   11  C   UNL     1      -2.617  14.078  21.094  0.00  0.00     0.027 A 
HETATM   12  C   UNL     1      -2.108  15.397  21.167  0.00  0.00     0.023 A 
HETATM   13  C   UNL     1      -2.645  16.428  20.376  0.00  0.00     0.022 A 
HETATM   14  I   UNL     1      -0.503  15.971  22.411  0.00  0.00    -0.043 I 
HETATM   15  C   UNL     1      -3.673  16.154  19.482  0.00  0.00     0.038 A 
HETATM   16  C   UNL     1      -4.171  14.860  19.380  0.00  0.00     0.069 A 
HETATM   17  C   UNL     1      -3.682  13.850  20.219  0.00  0.00     0.057 A 
BRANCH  16  18
HETATM   18  O   UNL     1      -5.126  14.647  18.427  0.00  0.00    -0.356 OA
HETATM   19  C   UNL     1      -5.818  13.406  18.590  0.00  0.00     0.210 C 
ENDBRANCH  16  18
ENDBRANCH  10  11
ENDBRANCH   1  10
BRANCH   9  20
HETATM   20  C   UNL     1      -1.217  12.803  25.175  0.00  0.00     0.163 C 
BRANCH  20  21
HETATM   21  C   UNL     1       0.026  11.894  25.078  0.00  0.00     0.289 C 
BRANCH  21  22
HETATM   22  N   UNL     1      -0.133  10.504  25.512  0.00  0.00     0.085 N 
HETATM   23  H   UNL     1      -1.022  10.393  26.001  0.00  0.00     0.315 HD
BRANCH  22  24
HETATM   24  C   UNL     1      -0.015   9.544  24.417  0.00  0.00     0.277 C 
BRANCH  24  25
HETATM   25  C   UNL     1       0.730   8.243  24.803  0.00  0.00    -0.025 C 
HETATM   26  C   UNL     1      -0.207   7.020  24.813  0.00  0.00     0.016 C 
HETATM   27  C   UNL     1       1.830   7.999  23.753  0.00  0.00     0.016 C 
HETATM   28  C   UNL     1       1.381   8.400  26.185  0.00  0.00     0.016 C 
ENDBRANCH  24  25
ENDBRANCH  22  24
ENDBRANCH  21  22
ENDBRANCH  20  21
ENDBRANCH   9  20
BRANCH   4  29
HETATM   29  N   UNL     1      -6.598  10.195  24.217  0.00  0.00    -0.285 NA
HETATM   30  H   UNL     1      -7.440  10.714  24.437  0.00  0.00     0.125 HD
HETATM   31  H   UNL     1      -6.360  10.096  23.236  0.00  0.00     0.125 HD
ENDBRANCH   4  29
TORSDOF 9
ENDMDL
