REMARK  9 active torsions:
REMARK  status: ('A' for Active; 'I' for Inactive)
REMARK    1  A    between atoms: O_2  and  C_3 
REMARK    2  A    between atoms: C_8  and  S_9 
REMARK    3  A    between atoms: S_9  and  C_10 
REMARK    4  A    between atoms: C_13  and  N_14 
REMARK    5  A    between atoms: N_19  and  C_20 
REMARK    6  A    between atoms: C_20  and  C_21 
REMARK    7  A    between atoms: C_21  and  N_22 
REMARK    8  A    between atoms: N_22  and  C_23 
REMARK    9  A    between atoms: C_23  and  C_24 
ROOT
HETATM    1  C   UNL     1       3.640  -4.103  -2.824  0.00  0.00     0.176 A 
HETATM    2  N   UNL     1       3.945  -5.307  -3.280  0.00  0.00    -0.217 NA
HETATM    3  C   UNL     1       3.659  -6.171  -2.237  0.00  0.00     0.145 A 
HETATM    4  C   UNL     1       3.802  -7.562  -2.061  0.00  0.00     0.135 A 
HETATM    5  N   UNL     1       3.479  -8.102  -0.862  0.00  0.00    -0.228 NA
HETATM    6  C   UNL     1       3.002  -7.291   0.103  0.00  0.00     0.237 A 
HETATM    7  N   UNL     1       2.792  -5.965   0.038  0.00  0.00    -0.222 NA
HETATM    8  C   UNL     1       3.155  -5.470  -1.155  0.00  0.00     0.165 A 
HETATM    9  N   UNL     1       3.128  -4.156  -1.549  0.00  0.00    -0.307 N 
ENDROOT
BRANCH   1  10
HETATM   10  S   UNL     1       4.118  -2.620  -3.598  0.00  0.00    -0.051 SA
BRANCH  10  11
HETATM   11  C   UNL     1       2.887  -2.251  -4.845  0.00  0.00     0.027 A 
HETATM   12  C   UNL     1       2.760  -0.965  -5.423  0.00  0.00     0.023 A 
HETATM   13  C   UNL     1       1.887  -0.735  -6.501  0.00  0.00     0.022 A 
HETATM   14  I   UNL     1       3.854   0.724  -4.786  0.00  0.00    -0.043 I 
HETATM   15  C   UNL     1       1.153  -1.786  -7.036  0.00  0.00     0.038 A 
HETATM   16  C   UNL     1       1.281  -3.061  -6.497  0.00  0.00     0.069 A 
HETATM   17  C   UNL     1       2.099  -3.273  -5.378  0.00  0.00     0.057 A 
BRANCH  16  18
HETATM   18  O   UNL     1       0.590  -4.061  -7.121  0.00  0.00    -0.356 OA
HETATM   19  C   UNL     1       1.284  -5.311  -7.122  0.00  0.00     0.210 C 
ENDBRANCH  16  18
ENDBRANCH  10  11
ENDBRANCH   1  10
BRANCH   9  20
HETATM   20  C   UNL     1       2.599  -3.094  -0.718  0.00  0.00     0.163 C 
BRANCH  20  21
HETATM   21  C   UNL     1       3.382  -2.839   0.587  0.00  0.00     0.289 C 
BRANCH  21  22
HETATM   22  N   UNL     1       4.792  -2.467   0.453  0.00  0.00     0.085 N 
HETATM   23  H   UNL     1       5.313  -3.231   0.023  0.00  0.00     0.315 HD
BRANCH  22  24
HETATM   24  C   UNL     1       4.989  -1.220  -0.283  0.00  0.00     0.277 C 
BRANCH  24  25
HETATM   25  C   UNL     1       6.476  -0.856  -0.511  0.00  0.00    -0.025 C 
HETATM   26  C   UNL     1       7.230  -1.958  -1.280  0.00  0.00     0.016 C 
HETATM   27  C   UNL     1       6.523   0.435  -1.350  0.00  0.00     0.016 C 
HETATM   28  C   UNL     1       7.169  -0.606   0.836  0.00  0.00     0.016 C 
ENDBRANCH  24  25
ENDBRANCH  22  24
ENDBRANCH  21  22
ENDBRANCH  20  21
ENDBRANCH   9  20
BRANCH   4  29
HETATM   29  N   UNL     1       4.295  -8.428  -3.030  0.00  0.00    -0.285 NA
HETATM   30  H   UNL     1       4.891  -7.973  -3.711  0.00  0.00     0.125 HD
HETATM   31  H   UNL     1       4.643  -9.283  -2.610  0.00  0.00     0.125 HD
ENDBRANCH   4  29
TORSDOF 9
