MODEL 1
REMARK VINA RESULT:    -6.825      0.000      0.000
REMARK INTER + INTRA:         -10.758
REMARK INTER:                  -9.663
REMARK INTRA:                  -1.095
REMARK UNBOUND:                -1.339
REMARK  7 active torsions:
REMARK  status: ('A' for Active; 'I' for Inactive)
REMARK    1  A    between atoms: C_2  and  C_3 
REMARK    2  A    between atoms: C_3  and  C_4 
REMARK    3  A    between atoms: C_4  and  C_5 
REMARK    4  A    between atoms: C_12  and  C_16 
REMARK    5  A    between atoms: C_13  and  O_15 
REMARK       I    between atoms: C_16  and  N_18 
REMARK    6  A    between atoms: N_18  and  C_20 
REMARK    7  A    between atoms: C_23  and  N_26 
ROOT
HETATM    1  C   UNL     1       2.760   6.807  18.095  0.00  0.00     0.067 A 
HETATM    2  N   UNL     1       3.444   6.302  17.057  0.00  0.00    -0.178 NA
HETATM    3  N   UNL     1       4.606   5.904  17.593  0.00  0.00    -0.277 N 
HETATM    4  H   UNL     1       5.298   5.489  16.980  0.00  0.00     0.189 HD
HETATM    5  C   UNL     1       3.503   6.711  19.311  0.00  0.00     0.019 A 
HETATM    6  C   UNL     1       4.726   6.175  18.927  0.00  0.00     0.065 A 
HETATM    7  C   UNL     1       3.319   7.051  20.669  0.00  0.00     0.035 C 
HETATM    8  C   UNL     1       4.386   6.921  21.598  0.00  0.00     0.066 C 
HETATM    9  C   UNL     1       5.632   6.505  21.113  0.00  0.00     0.083 C 
HETATM   10  C   UNL     1       5.806   6.040  19.803  0.00  0.00     0.069 C 
ENDROOT
BRANCH   8  11
HETATM   11  C   UNL     1       4.094   7.397  22.993  0.00  0.00     0.260 C 
HETATM   12  O   UNL     1       4.477   8.555  23.197  0.00  0.00    -0.267 OA
HETATM   13  N   UNL     1       3.439   6.606  23.976  0.00  0.00    -0.318 N 
HETATM   14  C   UNL     1       3.175   5.176  23.814  0.00  0.00     0.159 C 
BRANCH  13  15
HETATM   15  C   UNL     1       3.023   7.192  25.247  0.00  0.00     0.037 A 
HETATM   16  C   UNL     1       3.750   6.979  26.419  0.00  0.00     0.032 A 
HETATM   17  C   UNL     1       3.343   7.520  27.653  0.00  0.00     0.031 A 
HETATM   18  C   UNL     1       2.193   8.301  27.787  0.00  0.00     0.030 A 
HETATM   19  C   UNL     1       1.506   8.589  26.605  0.00  0.00     0.031 A 
HETATM   20  C   UNL     1       1.907   8.040  25.361  0.00  0.00     0.032 A 
BRANCH  18  21
HETATM   21  N   UNL     1       1.799   8.736  29.035  0.00  0.00    -0.377 N 
HETATM   22  C   UNL     1       0.417   8.729  29.539  0.00  0.00     0.149 C 
HETATM   23  C   UNL     1       0.272   7.797  30.753  0.00  0.00     0.187 C 
HETATM   24  O   UNL     1       1.246   8.080  31.773  0.00  0.00    -0.388 OA
HETATM   25  C   UNL     1       2.573   7.942  31.239  0.00  0.00     0.187 C 
HETATM   26  C   UNL     1       2.818   8.925  30.084  0.00  0.00     0.149 C 
ENDBRANCH  18  21
ENDBRANCH  13  15
ENDBRANCH   8  11
BRANCH   9  27
HETATM   27  O   UNL     1       6.794   6.597  21.830  0.00  0.00    -0.360 OA
HETATM   28  H   UNL     1       6.875   5.771  22.347  0.00  0.00     0.217 HD
ENDBRANCH   9  27
BRANCH   1  29
HETATM   29  C   UNL     1       1.426   7.440  17.849  0.00  0.00     0.062 C 
BRANCH  29  30
HETATM   30  C   UNL     1       0.317   6.412  17.602  0.00  0.00     0.006 C 
BRANCH  30  31
HETATM   31  C   UNL     1       0.023   5.577  18.849  0.00  0.00    -0.004 C 
HETATM   32  C   UNL     1      -0.634   4.256  18.480  0.00  0.00     0.005 C 
ENDBRANCH  30  31
ENDBRANCH  29  30
ENDBRANCH   1  29
TORSDOF 7
ENDMDL
MODEL 2
REMARK VINA RESULT:    -6.814      0.808      1.561
REMARK INTER + INTRA:         -10.742
REMARK INTER:                  -9.635
REMARK INTRA:                  -1.107
REMARK UNBOUND:                -1.339
REMARK  7 active torsions:
REMARK  status: ('A' for Active; 'I' for Inactive)
REMARK    1  A    between atoms: C_2  and  C_3 
REMARK    2  A    between atoms: C_3  and  C_4 
REMARK    3  A    between atoms: C_4  and  C_5 
REMARK    4  A    between atoms: C_12  and  C_16 
REMARK    5  A    between atoms: C_13  and  O_15 
REMARK       I    between atoms: C_16  and  N_18 
REMARK    6  A    between atoms: N_18  and  C_20 
REMARK    7  A    between atoms: C_23  and  N_26 
ROOT
HETATM    1  C   UNL     1       2.740   6.405  18.276  0.00  0.00     0.067 A 
HETATM    2  N   UNL     1       3.435   5.899  17.245  0.00  0.00    -0.178 NA
HETATM    3  N   UNL     1       4.618   5.568  17.780  0.00  0.00    -0.277 N 
HETATM    4  H   UNL     1       5.322   5.164  17.172  0.00  0.00     0.189 HD
HETATM    5  C   UNL     1       3.498   6.378  19.485  0.00  0.00     0.019 A 
HETATM    6  C   UNL     1       4.740   5.884  19.105  0.00  0.00     0.065 A 
HETATM    7  C   UNL     1       3.313   6.751  20.835  0.00  0.00     0.035 C 
HETATM    8  C   UNL     1       4.393   6.694  21.756  0.00  0.00     0.066 C 
HETATM    9  C   UNL     1       5.650   6.318  21.270  0.00  0.00     0.083 C 
HETATM   10  C   UNL     1       5.832   5.822  19.972  0.00  0.00     0.069 C 
ENDROOT
BRANCH   8  11
HETATM   11  C   UNL     1       4.094   7.200  23.139  0.00  0.00     0.260 C 
HETATM   12  O   UNL     1       4.516   8.345  23.336  0.00  0.00    -0.267 OA
HETATM   13  N   UNL     1       3.391   6.446  24.120  0.00  0.00    -0.318 N 
HETATM   14  C   UNL     1       3.076   5.025  23.970  0.00  0.00     0.159 C 
BRANCH  13  15
HETATM   15  C   UNL     1       2.974   7.064  25.375  0.00  0.00     0.037 A 
HETATM   16  C   UNL     1       3.711   6.895  26.549  0.00  0.00     0.032 A 
HETATM   17  C   UNL     1       3.304   7.467  27.768  0.00  0.00     0.031 A 
HETATM   18  C   UNL     1       2.145   8.237  27.886  0.00  0.00     0.030 A 
HETATM   19  C   UNL     1       1.447   8.481  26.700  0.00  0.00     0.031 A 
HETATM   20  C   UNL     1       1.848   7.901  25.471  0.00  0.00     0.032 A 
BRANCH  18  21
HETATM   21  N   UNL     1       1.751   8.704  29.123  0.00  0.00    -0.377 N 
HETATM   22  C   UNL     1       0.369   8.719  29.624  0.00  0.00     0.149 C 
HETATM   23  C   UNL     1       0.214   7.816  30.859  0.00  0.00     0.187 C 
HETATM   24  O   UNL     1       1.187   8.114  31.874  0.00  0.00    -0.388 OA
HETATM   25  C   UNL     1       2.514   7.953  31.346  0.00  0.00     0.187 C 
HETATM   26  C   UNL     1       2.770   8.908  30.170  0.00  0.00     0.149 C 
ENDBRANCH  18  21
ENDBRANCH  13  15
ENDBRANCH   8  11
BRANCH   9  27
HETATM   27  O   UNL     1       6.814   6.481  21.971  0.00  0.00    -0.360 OA
HETATM   28  H   UNL     1       7.544   6.210  21.378  0.00  0.00     0.217 HD
ENDBRANCH   9  27
BRANCH   1  29
HETATM   29  C   UNL     1       1.378   6.973  18.025  0.00  0.00     0.062 C 
BRANCH  29  30
HETATM   30  C   UNL     1       1.416   8.278  17.225  0.00  0.00     0.006 C 
BRANCH  30  31
HETATM   31  C   UNL     1       2.007   9.430  18.038  0.00  0.00    -0.004 C 
HETATM   32  C   UNL     1       1.364  10.755  17.657  0.00  0.00     0.005 C 
ENDBRANCH  30  31
ENDBRANCH  29  30
ENDBRANCH   1  29
TORSDOF 7
ENDMDL
MODEL 3
REMARK VINA RESULT:    -6.386      3.703      9.047
REMARK INTER + INTRA:         -10.152
REMARK INTER:                  -9.103
REMARK INTRA:                  -1.048
REMARK UNBOUND:                -1.339
REMARK  7 active torsions:
REMARK  status: ('A' for Active; 'I' for Inactive)
REMARK    1  A    between atoms: C_2  and  C_3 
REMARK    2  A    between atoms: C_3  and  C_4 
REMARK    3  A    between atoms: C_4  and  C_5 
REMARK    4  A    between atoms: C_12  and  C_16 
REMARK    5  A    between atoms: C_13  and  O_15 
REMARK       I    between atoms: C_16  and  N_18 
REMARK    6  A    between atoms: N_18  and  C_20 
REMARK    7  A    between atoms: C_23  and  N_26 
ROOT
HETATM    1  C   UNL     1      -1.228  10.582  25.566  0.00  0.00     0.067 A 
HETATM    2  N   UNL     1      -1.594  11.289  26.646  0.00  0.00    -0.178 NA
HETATM    3  N   UNL     1      -0.842  10.787  27.635  0.00  0.00    -0.277 N 
HETATM    4  H   UNL     1      -0.957  11.174  28.566  0.00  0.00     0.189 HD
HETATM    5  C   UNL     1      -0.216   9.626  25.881  0.00  0.00     0.019 A 
HETATM    6  C   UNL     1      -0.040   9.749  27.254  0.00  0.00     0.065 A 
HETATM    7  C   UNL     1       0.534   8.644  25.197  0.00  0.00     0.035 C 
HETATM    8  C   UNL     1       1.385   7.757  25.909  0.00  0.00     0.066 C 
HETATM    9  C   UNL     1       1.408   7.849  27.306  0.00  0.00     0.083 C 
HETATM   10  C   UNL     1       0.777   8.892  27.996  0.00  0.00     0.069 C 
ENDROOT
BRANCH   8  11
HETATM   11  C   UNL     1       2.062   6.701  25.081  0.00  0.00     0.260 C 
HETATM   12  O   UNL     1       1.776   5.553  25.437  0.00  0.00    -0.267 OA
HETATM   13  N   UNL     1       2.934   6.989  23.994  0.00  0.00    -0.318 N 
HETATM   14  C   UNL     1       3.440   8.330  23.702  0.00  0.00     0.159 C 
BRANCH  13  15
HETATM   15  C   UNL     1       3.409   5.922  23.119  0.00  0.00     0.037 A 
HETATM   16  C   UNL     1       2.647   5.474  22.038  0.00  0.00     0.032 A 
HETATM   17  C   UNL     1       3.086   4.430  21.204  0.00  0.00     0.031 A 
HETATM   18  C   UNL     1       4.305   3.776  21.398  0.00  0.00     0.030 A 
HETATM   19  C   UNL     1       5.111   4.274  22.425  0.00  0.00     0.031 A 
HETATM   20  C   UNL     1       4.670   5.320  23.273  0.00  0.00     0.032 A 
BRANCH  18  21
HETATM   21  N   UNL     1       4.646   2.705  20.598  0.00  0.00    -0.377 N 
HETATM   22  C   UNL     1       4.477   1.289  20.959  0.00  0.00     0.149 C 
HETATM   23  C   UNL     1       3.486   0.589  20.013  0.00  0.00     0.187 C 
HETATM   24  O   UNL     1       3.826   0.785  18.630  0.00  0.00    -0.388 OA
HETATM   25  C   UNL     1       3.847   2.189  18.322  0.00  0.00     0.187 C 
HETATM   26  C   UNL     1       4.896   2.932  19.163  0.00  0.00     0.149 C 
ENDBRANCH  18  21
ENDBRANCH  13  15
ENDBRANCH   8  11
BRANCH   9  27
HETATM   27  O   UNL     1       1.960   6.898  28.119  0.00  0.00    -0.360 OA
HETATM   28  H   UNL     1       1.223   6.472  28.601  0.00  0.00     0.217 HD
ENDBRANCH   9  27
BRANCH   1  29
HETATM   29  C   UNL     1      -1.941  10.813  24.269  0.00  0.00     0.062 C 
BRANCH  29  30
HETATM   30  C   UNL     1      -1.826  12.260  23.779  0.00  0.00     0.006 C 
BRANCH  30  31
HETATM   31  C   UNL     1      -0.399  12.609  23.356  0.00  0.00    -0.004 C 
HETATM   32  C   UNL     1       0.148  13.763  24.182  0.00  0.00     0.005 C 
ENDBRANCH  30  31
ENDBRANCH  29  30
ENDBRANCH   1  29
TORSDOF 7
ENDMDL
MODEL 4
REMARK VINA RESULT:    -6.380      2.493      9.474
REMARK INTER + INTRA:         -10.143
REMARK INTER:                  -9.226
REMARK INTRA:                  -0.917
REMARK UNBOUND:                -1.339
REMARK  7 active torsions:
REMARK  status: ('A' for Active; 'I' for Inactive)
REMARK    1  A    between atoms: C_2  and  C_3 
REMARK    2  A    between atoms: C_3  and  C_4 
REMARK    3  A    between atoms: C_4  and  C_5 
REMARK    4  A    between atoms: C_12  and  C_16 
REMARK    5  A    between atoms: C_13  and  O_15 
REMARK       I    between atoms: C_16  and  N_18 
REMARK    6  A    between atoms: N_18  and  C_20 
REMARK    7  A    between atoms: C_23  and  N_26 
ROOT
HETATM    1  C   UNL     1       0.304   8.885  29.444  0.00  0.00     0.067 A 
HETATM    2  N   UNL     1       0.421   8.531  30.733  0.00  0.00    -0.178 NA
HETATM    3  N   UNL     1       1.250   7.479  30.708  0.00  0.00    -0.277 N 
HETATM    4  H   UNL     1       1.482   7.032  31.588  0.00  0.00     0.189 HD
HETATM    5  C   UNL     1       1.086   8.047  28.594  0.00  0.00     0.019 A 
HETATM    6  C   UNL     1       1.637   7.103  29.452  0.00  0.00     0.065 A 
HETATM    7  C   UNL     1       1.360   7.935  27.214  0.00  0.00     0.035 C 
HETATM    8  C   UNL     1       2.113   6.839  26.712  0.00  0.00     0.066 C 
HETATM    9  C   UNL     1       2.518   5.852  27.618  0.00  0.00     0.083 C 
HETATM   10  C   UNL     1       2.372   6.004  29.003  0.00  0.00     0.069 C 
ENDROOT
BRANCH   8  11
HETATM   11  C   UNL     1       2.261   6.784  25.217  0.00  0.00     0.260 C 
HETATM   12  O   UNL     1       1.181   6.659  24.630  0.00  0.00    -0.267 OA
HETATM   13  N   UNL     1       3.511   6.873  24.545  0.00  0.00    -0.318 N 
HETATM   14  C   UNL     1       4.802   6.807  25.232  0.00  0.00     0.159 C 
BRANCH  13  15
HETATM   15  C   UNL     1       3.567   6.998  23.092  0.00  0.00     0.037 A 
HETATM   16  C   UNL     1       3.954   8.191  22.478  0.00  0.00     0.032 A 
HETATM   17  C   UNL     1       3.988   8.328  21.078  0.00  0.00     0.031 A 
HETATM   18  C   UNL     1       3.640   7.288  20.214  0.00  0.00     0.030 A 
HETATM   19  C   UNL     1       3.333   6.066  20.817  0.00  0.00     0.031 A 
HETATM   20  C   UNL     1       3.290   5.924  22.227  0.00  0.00     0.032 A 
BRANCH  18  21
HETATM   21  N   UNL     1       3.613   7.505  18.852  0.00  0.00    -0.377 N 
HETATM   22  C   UNL     1       4.026   6.531  17.829  0.00  0.00     0.149 C 
HETATM   23  C   UNL     1       2.842   6.131  16.932  0.00  0.00     0.187 C 
HETATM   24  O   UNL     1       2.166   7.276  16.385  0.00  0.00    -0.388 OA
HETATM   25  C   UNL     1       1.680   8.115  17.445  0.00  0.00     0.187 C 
HETATM   26  C   UNL     1       2.830   8.636  18.321  0.00  0.00     0.149 C 
ENDBRANCH  18  21
ENDBRANCH  13  15
ENDBRANCH   8  11
BRANCH   9  27
HETATM   27  O   UNL     1       3.002   4.629  27.240  0.00  0.00    -0.360 OA
HETATM   28  H   UNL     1       2.693   4.471  26.326  0.00  0.00     0.217 HD
ENDBRANCH   9  27
BRANCH   1  29
HETATM   29  C   UNL     1      -0.637   9.991  29.077  0.00  0.00     0.062 C 
BRANCH  29  30
HETATM   30  C   UNL     1      -1.501   9.656  27.858  0.00  0.00     0.006 C 
BRANCH  30  31
HETATM   31  C   UNL     1      -1.290  10.651  26.716  0.00  0.00    -0.004 C 
HETATM   32  C   UNL     1      -1.058   9.929  25.397  0.00  0.00     0.005 C 
ENDBRANCH  30  31
ENDBRANCH  29  30
ENDBRANCH   1  29
TORSDOF 7
ENDMDL
MODEL 5
REMARK VINA RESULT:    -6.356      4.737     10.863
REMARK INTER + INTRA:         -10.110
REMARK INTER:                  -9.022
REMARK INTRA:                  -1.089
REMARK UNBOUND:                -1.339
REMARK  7 active torsions:
REMARK  status: ('A' for Active; 'I' for Inactive)
REMARK    1  A    between atoms: C_2  and  C_3 
REMARK    2  A    between atoms: C_3  and  C_4 
REMARK    3  A    between atoms: C_4  and  C_5 
REMARK    4  A    between atoms: C_12  and  C_16 
REMARK    5  A    between atoms: C_13  and  O_15 
REMARK       I    between atoms: C_16  and  N_18 
REMARK    6  A    between atoms: N_18  and  C_20 
REMARK    7  A    between atoms: C_23  and  N_26 
ROOT
HETATM    1  C   UNL     1       3.998   6.600  22.439  0.00  0.00     0.067 A 
HETATM    2  N   UNL     1       5.219   7.045  22.774  0.00  0.00    -0.178 NA
HETATM    3  N   UNL     1       5.834   7.227  21.597  0.00  0.00    -0.277 N 
HETATM    4  H   UNL     1       6.791   7.560  21.605  0.00  0.00     0.189 HD
HETATM    5  C   UNL     1       3.839   6.514  21.023  0.00  0.00     0.019 A 
HETATM    6  C   UNL     1       5.081   6.870  20.513  0.00  0.00     0.065 A 
HETATM    7  C   UNL     1       2.827   6.136  20.113  0.00  0.00     0.035 C 
HETATM    8  C   UNL     1       3.102   6.048  18.722  0.00  0.00     0.066 C 
HETATM    9  C   UNL     1       4.413   6.288  18.295  0.00  0.00     0.083 C 
HETATM   10  C   UNL     1       5.399   6.788  19.156  0.00  0.00     0.069 C 
ENDROOT
BRANCH   8  11
HETATM   11  C   UNL     1       1.970   5.551  17.867  0.00  0.00     0.260 C 
HETATM   12  O   UNL     1       1.120   6.419  17.640  0.00  0.00    -0.267 OA
HETATM   13  N   UNL     1       1.886   4.224  17.363  0.00  0.00    -0.318 N 
HETATM   14  C   UNL     1       2.769   3.140  17.797  0.00  0.00     0.159 C 
BRANCH  13  15
HETATM   15  C   UNL     1       0.859   3.861  16.391  0.00  0.00     0.037 A 
HETATM   16  C   UNL     1       0.871   4.377  15.093  0.00  0.00     0.032 A 
HETATM   17  C   UNL     1      -0.128   4.051  14.157  0.00  0.00     0.031 A 
HETATM   18  C   UNL     1      -1.190   3.196  14.459  0.00  0.00     0.030 A 
HETATM   19  C   UNL     1      -1.163   2.609  15.727  0.00  0.00     0.031 A 
HETATM   20  C   UNL     1      -0.164   2.940  16.677  0.00  0.00     0.032 A 
BRANCH  18  21
HETATM   21  N   UNL     1      -2.184   2.977  13.528  0.00  0.00    -0.377 N 
HETATM   22  C   UNL     1      -3.255   1.977  13.650  0.00  0.00     0.149 C 
HETATM   23  C   UNL     1      -4.638   2.648  13.715  0.00  0.00     0.187 C 
HETATM   24  O   UNL     1      -4.844   3.570  12.632  0.00  0.00    -0.388 OA
HETATM   25  C   UNL     1      -3.833   4.591  12.655  0.00  0.00     0.187 C 
HETATM   26  C   UNL     1      -2.427   3.993  12.487  0.00  0.00     0.149 C 
ENDBRANCH  18  21
ENDBRANCH  13  15
ENDBRANCH   8  11
BRANCH   9  27
HETATM   27  O   UNL     1       4.872   5.976  17.044  0.00  0.00    -0.360 OA
HETATM   28  H   UNL     1       5.585   6.613  16.837  0.00  0.00     0.217 HD
ENDBRANCH   9  27
BRANCH   1  29
HETATM   29  C   UNL     1       3.047   6.199  23.524  0.00  0.00     0.062 C 
BRANCH  29  30
HETATM   30  C   UNL     1       3.492   4.935  24.266  0.00  0.00     0.006 C 
BRANCH  30  31
HETATM   31  C   UNL     1       3.538   3.717  23.343  0.00  0.00    -0.004 C 
HETATM   32  C   UNL     1       4.954   3.173  23.226  0.00  0.00     0.005 C 
ENDBRANCH  30  31
ENDBRANCH  29  30
ENDBRANCH   1  29
TORSDOF 7
ENDMDL
MODEL 6
REMARK VINA RESULT:    -6.309      1.783      2.424
REMARK INTER + INTRA:         -10.046
REMARK INTER:                  -8.935
REMARK INTRA:                  -1.111
REMARK UNBOUND:                -1.339
REMARK  7 active torsions:
REMARK  status: ('A' for Active; 'I' for Inactive)
REMARK    1  A    between atoms: C_2  and  C_3 
REMARK    2  A    between atoms: C_3  and  C_4 
REMARK    3  A    between atoms: C_4  and  C_5 
REMARK    4  A    between atoms: C_12  and  C_16 
REMARK    5  A    between atoms: C_13  and  O_15 
REMARK       I    between atoms: C_16  and  N_18 
REMARK    6  A    between atoms: N_18  and  C_20 
REMARK    7  A    between atoms: C_23  and  N_26 
ROOT
HETATM    1  C   UNL     1       4.128   5.261  19.919  0.00  0.00     0.067 A 
HETATM    2  N   UNL     1       4.767   5.600  18.788  0.00  0.00    -0.178 NA
HETATM    3  N   UNL     1       5.153   6.866  18.997  0.00  0.00    -0.277 N 
HETATM    4  H   UNL     1       5.658   7.340  18.258  0.00  0.00     0.189 HD
HETATM    5  C   UNL     1       4.125   6.333  20.862  0.00  0.00     0.019 A 
HETATM    6  C   UNL     1       4.747   7.382  20.196  0.00  0.00     0.065 A 
HETATM    7  C   UNL     1       3.636   6.566  22.166  0.00  0.00     0.035 C 
HETATM    8  C   UNL     1       3.710   7.861  22.746  0.00  0.00     0.066 C 
HETATM    9  C   UNL     1       4.224   8.901  21.964  0.00  0.00     0.083 C 
HETATM   10  C   UNL     1       4.832   8.672  20.722  0.00  0.00     0.069 C 
ENDROOT
BRANCH   8  11
HETATM   11  C   UNL     1       3.077   8.002  24.102  0.00  0.00     0.260 C 
HETATM   12  O   UNL     1       2.088   8.744  24.097  0.00  0.00    -0.267 OA
HETATM   13  N   UNL     1       3.556   7.346  25.269  0.00  0.00    -0.318 N 
HETATM   14  C   UNL     1       4.837   6.641  25.327  0.00  0.00     0.159 C 
BRANCH  13  15
HETATM   15  C   UNL     1       2.789   7.380  26.510  0.00  0.00     0.037 A 
HETATM   16  C   UNL     1       2.788   8.506  27.335  0.00  0.00     0.032 A 
HETATM   17  C   UNL     1       2.070   8.539  28.544  0.00  0.00     0.031 A 
HETATM   18  C   UNL     1       1.316   7.456  28.999  0.00  0.00     0.030 A 
HETATM   19  C   UNL     1       1.243   6.356  28.140  0.00  0.00     0.031 A 
HETATM   20  C   UNL     1       1.970   6.314  26.924  0.00  0.00     0.032 A 
BRANCH  18  21
HETATM   21  N   UNL     1       0.699   7.515  30.232  0.00  0.00    -0.377 N 
HETATM   22  C   UNL     1       0.332   6.351  31.053  0.00  0.00     0.149 C 
HETATM   23  C   UNL     1       1.101   6.345  32.385  0.00  0.00     0.187 C 
HETATM   24  O   UNL     1       0.982   7.595  33.086  0.00  0.00    -0.388 OA
HETATM   25  C   UNL     1       1.478   8.668  32.269  0.00  0.00     0.187 C 
HETATM   26  C   UNL     1       0.679   8.795  30.963  0.00  0.00     0.149 C 
ENDBRANCH  18  21
ENDBRANCH  13  15
ENDBRANCH   8  11
BRANCH   9  27
HETATM   27  O   UNL     1       4.103  10.225  22.289  0.00  0.00    -0.360 OA
HETATM   28  H   UNL     1       3.394  10.593  21.725  0.00  0.00     0.217 HD
ENDBRANCH   9  27
BRANCH   1  29
HETATM   29  C   UNL     1       3.472   3.918  20.009  0.00  0.00     0.062 C 
BRANCH  29  30
HETATM   30  C   UNL     1       2.158   3.846  19.225  0.00  0.00     0.006 C 
BRANCH  30  31
HETATM   31  C   UNL     1       1.024   4.584  19.938  0.00  0.00    -0.004 C 
HETATM   32  C   UNL     1       0.318   5.545  18.995  0.00  0.00     0.005 C 
ENDBRANCH  30  31
ENDBRANCH  29  30
ENDBRANCH   1  29
TORSDOF 7
ENDMDL
MODEL 7
REMARK VINA RESULT:    -6.250      4.474     10.855
REMARK INTER + INTRA:          -9.964
REMARK INTER:                  -8.795
REMARK INTRA:                  -1.169
REMARK UNBOUND:                -1.339
REMARK  7 active torsions:
REMARK  status: ('A' for Active; 'I' for Inactive)
REMARK    1  A    between atoms: C_2  and  C_3 
REMARK    2  A    between atoms: C_3  and  C_4 
REMARK    3  A    between atoms: C_4  and  C_5 
REMARK    4  A    between atoms: C_12  and  C_16 
REMARK    5  A    between atoms: C_13  and  O_15 
REMARK       I    between atoms: C_16  and  N_18 
REMARK    6  A    between atoms: N_18  and  C_20 
REMARK    7  A    between atoms: C_23  and  N_26 
ROOT
HETATM    1  C   UNL     1       3.563   6.458  23.396  0.00  0.00     0.067 A 
HETATM    2  N   UNL     1       4.094   7.407  24.181  0.00  0.00    -0.178 NA
HETATM    3  N   UNL     1       4.551   8.326  23.320  0.00  0.00    -0.277 N 
HETATM    4  H   UNL     1       5.009   9.149  23.696  0.00  0.00     0.189 HD
HETATM    5  C   UNL     1       3.678   6.794  22.013  0.00  0.00     0.019 A 
HETATM    6  C   UNL     1       4.385   7.990  22.005  0.00  0.00     0.065 A 
HETATM    7  C   UNL     1       3.320   6.222  20.773  0.00  0.00     0.035 C 
HETATM    8  C   UNL     1       3.743   6.815  19.553  0.00  0.00     0.066 C 
HETATM    9  C   UNL     1       4.570   7.942  19.625  0.00  0.00     0.083 C 
HETATM   10  C   UNL     1       4.832   8.602  20.832  0.00  0.00     0.069 C 
ENDROOT
BRANCH   8  11
HETATM   11  C   UNL     1       3.374   6.065  18.304  0.00  0.00     0.260 C 
HETATM   12  O   UNL     1       4.329   5.455  17.809  0.00  0.00    -0.267 OA
HETATM   13  N   UNL     1       2.064   6.049  17.751  0.00  0.00    -0.318 N 
HETATM   14  C   UNL     1       0.988   6.931  18.205  0.00  0.00     0.159 C 
BRANCH  13  15
HETATM   15  C   UNL     1       1.734   5.155  16.645  0.00  0.00     0.037 A 
HETATM   16  C   UNL     1       1.736   3.768  16.805  0.00  0.00     0.032 A 
HETATM   17  C   UNL     1       1.443   2.899  15.739  0.00  0.00     0.031 A 
HETATM   18  C   UNL     1       1.131   3.360  14.458  0.00  0.00     0.030 A 
HETATM   19  C   UNL     1       1.045   4.746  14.310  0.00  0.00     0.031 A 
HETATM   20  C   UNL     1       1.347   5.627  15.379  0.00  0.00     0.032 A 
BRANCH  18  21
HETATM   21  N   UNL     1       0.933   2.459  13.432  0.00  0.00    -0.377 N 
HETATM   22  C   UNL     1       1.470   1.091  13.388  0.00  0.00     0.149 C 
HETATM   23  C   UNL     1       0.339   0.049  13.384  0.00  0.00     0.187 C 
HETATM   24  O   UNL     1      -0.634   0.309  12.358  0.00  0.00    -0.388 OA
HETATM   25  C   UNL     1      -1.207   1.613  12.542  0.00  0.00     0.187 C 
HETATM   26  C   UNL     1      -0.139   2.714  12.452  0.00  0.00     0.149 C 
ENDBRANCH  18  21
ENDBRANCH  13  15
ENDBRANCH   8  11
BRANCH   9  27
HETATM   27  O   UNL     1       5.263   8.443  18.556  0.00  0.00    -0.360 OA
HETATM   28  H   UNL     1       5.359   7.713  17.912  0.00  0.00     0.217 HD
ENDBRANCH   9  27
BRANCH   1  29
HETATM   29  C   UNL     1       3.028   5.209  24.025  0.00  0.00     0.062 C 
BRANCH  29  30
HETATM   30  C   UNL     1       4.109   4.394  24.741  0.00  0.00     0.006 C 
BRANCH  30  31
HETATM   31  C   UNL     1       5.253   4.012  23.802  0.00  0.00    -0.004 C 
HETATM   32  C   UNL     1       4.787   3.022  22.746  0.00  0.00     0.005 C 
ENDBRANCH  30  31
ENDBRANCH  29  30
ENDBRANCH   1  29
TORSDOF 7
ENDMDL
MODEL 8
REMARK VINA RESULT:    -6.241      2.461     10.015
REMARK INTER + INTRA:          -9.952
REMARK INTER:                  -9.348
REMARK INTRA:                  -0.604
REMARK UNBOUND:                -1.339
REMARK  7 active torsions:
REMARK  status: ('A' for Active; 'I' for Inactive)
REMARK    1  A    between atoms: C_2  and  C_3 
REMARK    2  A    between atoms: C_3  and  C_4 
REMARK    3  A    between atoms: C_4  and  C_5 
REMARK    4  A    between atoms: C_12  and  C_16 
REMARK    5  A    between atoms: C_13  and  O_15 
REMARK       I    between atoms: C_16  and  N_18 
REMARK    6  A    between atoms: N_18  and  C_20 
REMARK    7  A    between atoms: C_23  and  N_26 
ROOT
HETATM    1  C   UNL     1       1.856   7.169  30.773  0.00  0.00     0.067 A 
HETATM    2  N   UNL     1       1.182   7.708  31.801  0.00  0.00    -0.178 NA
HETATM    3  N   UNL     1       0.294   8.525  31.218  0.00  0.00    -0.277 N 
HETATM    4  H   UNL     1      -0.332   9.055  31.814  0.00  0.00     0.189 HD
HETATM    5  C   UNL     1       1.372   7.647  29.518  0.00  0.00     0.019 A 
HETATM    6  C   UNL     1       0.396   8.578  29.856  0.00  0.00     0.065 A 
HETATM    7  C   UNL     1       1.663   7.452  28.151  0.00  0.00     0.035 C 
HETATM    8  C   UNL     1       1.030   8.244  27.155  0.00  0.00     0.066 C 
HETATM    9  C   UNL     1       0.162   9.257  27.578  0.00  0.00     0.083 C 
HETATM   10  C   UNL     1      -0.242   9.386  28.913  0.00  0.00     0.069 C 
ENDROOT
BRANCH   8  11
HETATM   11  C   UNL     1       1.488   8.002  25.745  0.00  0.00     0.260 C 
HETATM   12  O   UNL     1       0.598   8.195  24.909  0.00  0.00    -0.267 OA
HETATM   13  N   UNL     1       2.809   7.601  25.401  0.00  0.00    -0.318 N 
HETATM   14  C   UNL     1       3.800   7.168  26.387  0.00  0.00     0.159 C 
BRANCH  13  15
HETATM   15  C   UNL     1       3.236   7.563  24.007  0.00  0.00     0.037 A 
HETATM   16  C   UNL     1       3.824   8.672  23.395  0.00  0.00     0.032 A 
HETATM   17  C   UNL     1       4.217   8.652  22.044  0.00  0.00     0.031 A 
HETATM   18  C   UNL     1       4.048   7.531  21.230  0.00  0.00     0.030 A 
HETATM   19  C   UNL     1       3.539   6.390  21.855  0.00  0.00     0.031 A 
HETATM   20  C   UNL     1       3.134   6.406  23.214  0.00  0.00     0.032 A 
BRANCH  18  21
HETATM   21  N   UNL     1       4.377   7.596  19.892  0.00  0.00    -0.377 N 
HETATM   22  C   UNL     1       5.305   6.688  19.200  0.00  0.00     0.149 C 
HETATM   23  C   UNL     1       4.582   5.877  18.111  0.00  0.00     0.187 C 
HETATM   24  O   UNL     1       3.839   6.719  17.213  0.00  0.00    -0.388 OA
HETATM   25  C   UNL     1       2.865   7.482  17.945  0.00  0.00     0.187 C 
HETATM   26  C   UNL     1       3.534   8.396  18.984  0.00  0.00     0.149 C 
ENDBRANCH  18  21
ENDBRANCH  13  15
ENDBRANCH   8  11
BRANCH   9  27
HETATM   27  O   UNL     1      -0.296  10.253  26.759  0.00  0.00    -0.360 OA
HETATM   28  H   UNL     1      -0.576  10.991  27.337  0.00  0.00     0.217 HD
ENDBRANCH   9  27
BRANCH   1  29
HETATM   29  C   UNL     1       3.009   6.258  31.058  0.00  0.00     0.062 C 
BRANCH  29  30
HETATM   30  C   UNL     1       4.350   6.831  30.589  0.00  0.00     0.006 C 
BRANCH  30  31
HETATM   31  C   UNL     1       5.040   5.916  29.576  0.00  0.00    -0.004 C 
HETATM   32  C   UNL     1       4.220   4.660  29.327  0.00  0.00     0.005 C 
ENDBRANCH  30  31
ENDBRANCH  29  30
ENDBRANCH   1  29
TORSDOF 7
ENDMDL
MODEL 9
REMARK VINA RESULT:    -6.213      3.712      6.217
REMARK INTER + INTRA:          -9.913
REMARK INTER:                  -8.574
REMARK INTRA:                  -1.339
REMARK UNBOUND:                -1.339
REMARK  7 active torsions:
REMARK  status: ('A' for Active; 'I' for Inactive)
REMARK    1  A    between atoms: C_2  and  C_3 
REMARK    2  A    between atoms: C_3  and  C_4 
REMARK    3  A    between atoms: C_4  and  C_5 
REMARK    4  A    between atoms: C_12  and  C_16 
REMARK    5  A    between atoms: C_13  and  O_15 
REMARK       I    between atoms: C_16  and  N_18 
REMARK    6  A    between atoms: N_18  and  C_20 
REMARK    7  A    between atoms: C_23  and  N_26 
ROOT
HETATM    1  C   UNL     1       1.382   2.727  14.391  0.00  0.00     0.067 A 
HETATM    2  N   UNL     1       0.674   2.951  13.273  0.00  0.00    -0.178 NA
HETATM    3  N   UNL     1       0.151   4.171  13.456  0.00  0.00    -0.277 N 
HETATM    4  H   UNL     1      -0.441   4.552  12.726  0.00  0.00     0.189 HD
HETATM    5  C   UNL     1       1.314   3.836  15.288  0.00  0.00     0.019 A 
HETATM    6  C   UNL     1       0.449   4.729  14.668  0.00  0.00     0.065 A 
HETATM    7  C   UNL     1       1.829   4.178  16.557  0.00  0.00     0.035 C 
HETATM    8  C   UNL     1       1.409   5.366  17.213  0.00  0.00     0.066 C 
HETATM    9  C   UNL     1       0.430   6.148  16.590  0.00  0.00     0.083 C 
HETATM   10  C   UNL     1      -0.000   5.902  15.279  0.00  0.00     0.069 C 
ENDROOT
BRANCH   8  11
HETATM   11  C   UNL     1       1.960   5.574  18.596  0.00  0.00     0.260 C 
HETATM   12  O   UNL     1       1.143   5.310  19.485  0.00  0.00    -0.267 OA
HETATM   13  N   UNL     1       3.285   6.020  18.858  0.00  0.00    -0.318 N 
HETATM   14  C   UNL     1       4.182   6.532  17.822  0.00  0.00     0.159 C 
BRANCH  13  15
HETATM   15  C   UNL     1       3.813   6.023  20.219  0.00  0.00     0.037 A 
HETATM   16  C   UNL     1       4.429   4.895  20.764  0.00  0.00     0.032 A 
HETATM   17  C   UNL     1       4.919   4.882  22.082  0.00  0.00     0.031 A 
HETATM   18  C   UNL     1       4.825   5.988  22.929  0.00  0.00     0.030 A 
HETATM   19  C   UNL     1       4.286   7.148  22.366  0.00  0.00     0.031 A 
HETATM   20  C   UNL     1       3.784   7.164  21.040  0.00  0.00     0.032 A 
BRANCH  18  21
HETATM   21  N   UNL     1       5.249   5.891  24.238  0.00  0.00    -0.377 N 
HETATM   22  C   UNL     1       4.829   6.777  25.334  0.00  0.00     0.149 C 
HETATM   23  C   UNL     1       4.062   5.999  26.417  0.00  0.00     0.187 C 
HETATM   24  O   UNL     1       4.787   4.843  26.869  0.00  0.00    -0.388 OA
HETATM   25  C   UNL     1       5.049   3.962  25.764  0.00  0.00     0.187 C 
HETATM   26  C   UNL     1       5.905   4.650  24.689  0.00  0.00     0.149 C 
ENDBRANCH  18  21
ENDBRANCH  13  15
ENDBRANCH   8  11
BRANCH   9  27
HETATM   27  O   UNL     1      -0.254   7.152  17.220  0.00  0.00    -0.360 OA
HETATM   28  H   UNL     1       0.044   7.993  16.820  0.00  0.00     0.217 HD
ENDBRANCH   9  27
BRANCH   1  29
HETATM   29  C   UNL     1       2.044   1.398  14.579  0.00  0.00     0.062 C 
BRANCH  29  30
HETATM   30  C   UNL     1       1.355   0.536  15.641  0.00  0.00     0.006 C 
BRANCH  30  31
HETATM   31  C   UNL     1       2.319   0.118  16.752  0.00  0.00    -0.004 C 
HETATM   32  C   UNL     1       3.648   0.846  16.626  0.00  0.00     0.005 C 
ENDBRANCH  30  31
ENDBRANCH  29  30
ENDBRANCH   1  29
TORSDOF 7
ENDMDL
