MODEL 1
REMARK VINA RESULT:    -7.346      0.000      0.000
REMARK INTER + INTRA:          -9.438
REMARK INTER:                  -8.692
REMARK INTRA:                  -0.746
REMARK UNBOUND:                -0.804
REMARK  4 active torsions:
REMARK  status: ('A' for Active; 'I' for Inactive)
REMARK    1  A    between atoms: O_1  and  C_2 
REMARK    2  A    between atoms: C_5  and  C_6 
REMARK    3  A    between atoms: C_10  and  C_11 
REMARK    4  A    between atoms: C_17  and  O_18 
ROOT
HETATM    1  C   UNL     1       4.633   8.029  19.362  0.00  0.00     0.110 A 
HETATM    2  N   UNL     1       5.662   7.829  18.516  0.00  0.00    -0.127 NA
HETATM    3  O   UNL     1       6.795   8.263  19.166  0.00  0.00    -0.224 OA
HETATM    4  C   UNL     1       6.463   8.731  20.390  0.00  0.00     0.184 A 
HETATM    5  C   UNL     1       5.106   8.616  20.586  0.00  0.00     0.030 A 
ENDROOT
BRANCH   1   6
HETATM    6  C   UNL     1       3.263   7.700  18.940  0.00  0.00     0.029 A 
HETATM    7  C   UNL     1       2.543   8.574  18.107  0.00  0.00     0.019 A 
HETATM    8  C   UNL     1       1.327   8.187  17.533  0.00  0.00     0.037 A 
HETATM    9  C   UNL     1       0.801   6.936  17.830  0.00  0.00     0.068 A 
HETATM   10  C   UNL     1       1.441   6.093  18.731  0.00  0.00     0.074 A 
HETATM   11  C   UNL     1       2.657   6.480  19.292  0.00  0.00     0.081 A 
BRANCH   9  12
HETATM   12  O   UNL     1      -0.350   6.499  17.244  0.00  0.00    -0.361 OA
HETATM   13  H   UNL     1      -0.602   5.649  17.640  0.00  0.00     0.217 HD
ENDBRANCH   9  12
BRANCH  11  14
HETATM   14  O   UNL     1       3.213   5.598  20.180  0.00  0.00    -0.360 OA
HETATM   15  H   UNL     1       2.699   4.765  20.130  0.00  0.00     0.217 HD
ENDBRANCH  11  14
ENDBRANCH   1   6
BRANCH   5  16
HETATM   16  C   UNL     1       4.438   9.031  21.813  0.00  0.00    -0.022 A 
HETATM   17  C   UNL     1       3.865   8.088  22.678  0.00  0.00     0.012 A 
HETATM   18  C   UNL     1       3.385   8.470  23.933  0.00  0.00     0.001 A 
HETATM   19  C   UNL     1       3.416   9.809  24.314  0.00  0.00     0.000 A 
HETATM   20  C   UNL     1       3.908  10.767  23.432  0.00  0.00     0.001 A 
HETATM   21  C   UNL     1       4.419  10.382  22.190  0.00  0.00     0.012 A 
ENDBRANCH   5  16
TORSDOF 4
ENDMDL
MODEL 2
REMARK VINA RESULT:    -7.181      6.313      8.130
REMARK INTER + INTRA:          -9.244
REMARK INTER:                  -8.304
REMARK INTRA:                  -0.939
REMARK UNBOUND:                -0.804
REMARK  4 active torsions:
REMARK  status: ('A' for Active; 'I' for Inactive)
REMARK    1  A    between atoms: O_1  and  C_2 
REMARK    2  A    between atoms: C_5  and  C_6 
REMARK    3  A    between atoms: C_10  and  C_11 
REMARK    4  A    between atoms: C_17  and  O_18 
ROOT
HETATM    1  C   UNL     1      -1.057  10.754  26.623  0.00  0.00     0.110 A 
HETATM    2  N   UNL     1      -1.817  11.123  27.671  0.00  0.00    -0.127 NA
HETATM    3  O   UNL     1      -1.549  10.232  28.685  0.00  0.00    -0.224 OA
HETATM    4  C   UNL     1      -0.644   9.322  28.260  0.00  0.00     0.184 A 
HETATM    5  C   UNL     1      -0.285   9.588  26.959  0.00  0.00     0.030 A 
ENDROOT
BRANCH   1   6
HETATM    6  C   UNL     1      -1.148  11.494  25.355  0.00  0.00     0.029 A 
HETATM    7  C   UNL     1      -0.041  12.208  24.864  0.00  0.00     0.019 A 
HETATM    8  C   UNL     1      -0.043  12.745  23.572  0.00  0.00     0.037 A 
HETATM    9  C   UNL     1      -1.176  12.609  22.779  0.00  0.00     0.068 A 
HETATM   10  C   UNL     1      -2.320  11.997  23.276  0.00  0.00     0.074 A 
HETATM   11  C   UNL     1      -2.309  11.456  24.562  0.00  0.00     0.081 A 
BRANCH   9  12
HETATM   12  O   UNL     1      -1.195  13.064  21.494  0.00  0.00    -0.361 OA
HETATM   13  H   UNL     1      -0.506  13.741  21.390  0.00  0.00     0.217 HD
ENDBRANCH   9  12
BRANCH  11  14
HETATM   14  O   UNL     1      -3.482  10.884  24.979  0.00  0.00    -0.360 OA
HETATM   15  H   UNL     1      -4.139  11.001  24.263  0.00  0.00     0.217 HD
ENDBRANCH  11  14
ENDBRANCH   1   6
BRANCH   5  16
HETATM   16  C   UNL     1       0.680   8.788  26.216  0.00  0.00    -0.022 A 
HETATM   17  C   UNL     1       0.349   7.510  25.744  0.00  0.00     0.012 A 
HETATM   18  C   UNL     1       1.208   6.821  24.885  0.00  0.00     0.001 A 
HETATM   19  C   UNL     1       2.437   7.375  24.536  0.00  0.00     0.000 A 
HETATM   20  C   UNL     1       2.814   8.608  25.062  0.00  0.00     0.001 A 
HETATM   21  C   UNL     1       1.941   9.312  25.895  0.00  0.00     0.012 A 
ENDBRANCH   5  16
TORSDOF 4
ENDMDL
MODEL 3
REMARK VINA RESULT:    -7.169      1.322      1.820
REMARK INTER + INTRA:          -9.230
REMARK INTER:                  -8.435
REMARK INTRA:                  -0.795
REMARK UNBOUND:                -0.804
REMARK  4 active torsions:
REMARK  status: ('A' for Active; 'I' for Inactive)
REMARK    1  A    between atoms: O_1  and  C_2 
REMARK    2  A    between atoms: C_5  and  C_6 
REMARK    3  A    between atoms: C_10  and  C_11 
REMARK    4  A    between atoms: C_17  and  O_18 
ROOT
HETATM    1  C   UNL     1       4.377   7.258  19.235  0.00  0.00     0.110 A 
HETATM    2  N   UNL     1       5.297   7.184  18.254  0.00  0.00    -0.127 NA
HETATM    3  O   UNL     1       6.368   7.946  18.661  0.00  0.00    -0.224 OA
HETATM    4  C   UNL     1       6.104   8.488  19.871  0.00  0.00     0.184 A 
HETATM    5  C   UNL     1       4.857   8.096  20.300  0.00  0.00     0.030 A 
ENDROOT
BRANCH   1   6
HETATM    6  C   UNL     1       3.084   6.574  19.080  0.00  0.00     0.029 A 
HETATM    7  C   UNL     1       2.802   5.407  19.811  0.00  0.00     0.019 A 
HETATM    8  C   UNL     1       1.513   4.862  19.830  0.00  0.00     0.037 A 
HETATM    9  C   UNL     1       0.509   5.458  19.078  0.00  0.00     0.068 A 
HETATM   10  C   UNL     1       0.785   6.551  18.266  0.00  0.00     0.074 A 
HETATM   11  C   UNL     1       2.069   7.096  18.258  0.00  0.00     0.081 A 
BRANCH   9  12
HETATM   12  O   UNL     1      -0.772   4.993  19.119  0.00  0.00    -0.361 OA
HETATM   13  H   UNL     1      -0.821   4.162  18.620  0.00  0.00     0.217 HD
ENDBRANCH   9  12
BRANCH  11  14
HETATM   14  O   UNL     1       2.260   8.163  17.420  0.00  0.00    -0.360 OA
HETATM   15  H   UNL     1       1.523   8.167  16.774  0.00  0.00     0.217 HD
ENDBRANCH  11  14
ENDBRANCH   1   6
BRANCH   5  16
HETATM   16  C   UNL     1       4.283   8.510  21.574  0.00  0.00    -0.022 A 
HETATM   17  C   UNL     1       3.717   7.573  22.450  0.00  0.00     0.012 A 
HETATM   18  C   UNL     1       3.330   7.945  23.740  0.00  0.00     0.001 A 
HETATM   19  C   UNL     1       3.449   9.272  24.149  0.00  0.00     0.000 A 
HETATM   20  C   UNL     1       3.934  10.228  23.261  0.00  0.00     0.001 A 
HETATM   21  C   UNL     1       4.351   9.851  21.982  0.00  0.00     0.012 A 
ENDBRANCH   5  16
TORSDOF 4
ENDMDL
MODEL 4
REMARK VINA RESULT:    -6.842      2.551      3.221
REMARK INTER + INTRA:          -8.846
REMARK INTER:                  -8.169
REMARK INTRA:                  -0.677
REMARK UNBOUND:                -0.804
REMARK  4 active torsions:
REMARK  status: ('A' for Active; 'I' for Inactive)
REMARK    1  A    between atoms: O_1  and  C_2 
REMARK    2  A    between atoms: C_5  and  C_6 
REMARK    3  A    between atoms: C_10  and  C_11 
REMARK    4  A    between atoms: C_17  and  O_18 
ROOT
HETATM    1  C   UNL     1       5.354   7.494  19.117  0.00  0.00     0.110 A 
HETATM    2  N   UNL     1       6.108   8.461  18.561  0.00  0.00    -0.127 NA
HETATM    3  O   UNL     1       7.207   8.619  19.374  0.00  0.00    -0.224 OA
HETATM    4  C   UNL     1       7.122   7.767  20.420  0.00  0.00     0.184 A 
HETATM    5  C   UNL     1       5.971   7.019  20.326  0.00  0.00     0.030 A 
ENDROOT
BRANCH   1   6
HETATM    6  C   UNL     1       4.074   7.117  18.498  0.00  0.00     0.029 A 
HETATM    7  C   UNL     1       3.909   5.848  17.915  0.00  0.00     0.019 A 
HETATM    8  C   UNL     1       2.647   5.400  17.507  0.00  0.00     0.037 A 
HETATM    9  C   UNL     1       1.549   6.241  17.639  0.00  0.00     0.068 A 
HETATM   10  C   UNL     1       1.702   7.536  18.117  0.00  0.00     0.074 A 
HETATM   11  C   UNL     1       2.959   7.975  18.531  0.00  0.00     0.081 A 
BRANCH   9  12
HETATM   12  O   UNL     1       0.296   5.818  17.311  0.00  0.00    -0.361 OA
HETATM   13  H   UNL     1      -0.338   6.526  17.513  0.00  0.00     0.217 HD
ENDBRANCH   9  12
BRANCH  11  14
HETATM   14  O   UNL     1       3.024   9.269  18.975  0.00  0.00    -0.360 OA
HETATM   15  H   UNL     1       2.754   9.272  19.917  0.00  0.00     0.217 HD
ENDBRANCH  11  14
ENDBRANCH   1   6
BRANCH   5  16
HETATM   16  C   UNL     1       5.595   6.005  21.301  0.00  0.00    -0.022 A 
HETATM   17  C   UNL     1       4.999   4.800  20.899  0.00  0.00     0.012 A 
HETATM   18  C   UNL     1       4.804   3.761  21.812  0.00  0.00     0.001 A 
HETATM   19  C   UNL     1       5.145   3.935  23.151  0.00  0.00     0.000 A 
HETATM   20  C   UNL     1       5.661   5.155  23.580  0.00  0.00     0.001 A 
HETATM   21  C   UNL     1       5.888   6.183  22.661  0.00  0.00     0.012 A 
ENDBRANCH   5  16
TORSDOF 4
ENDMDL
MODEL 5
REMARK VINA RESULT:    -6.831      1.612      2.310
REMARK INTER + INTRA:          -8.832
REMARK INTER:                  -7.957
REMARK INTRA:                  -0.875
REMARK UNBOUND:                -0.804
REMARK  4 active torsions:
REMARK  status: ('A' for Active; 'I' for Inactive)
REMARK    1  A    between atoms: O_1  and  C_2 
REMARK    2  A    between atoms: C_5  and  C_6 
REMARK    3  A    between atoms: C_10  and  C_11 
REMARK    4  A    between atoms: C_17  and  O_18 
ROOT
HETATM    1  C   UNL     1       4.320   7.345  19.394  0.00  0.00     0.110 A 
HETATM    2  N   UNL     1       4.960   7.846  18.321  0.00  0.00    -0.127 NA
HETATM    3  O   UNL     1       6.070   8.505  18.796  0.00  0.00    -0.224 OA
HETATM    4  C   UNL     1       6.105   8.417  20.145  0.00  0.00     0.184 A 
HETATM    5  C   UNL     1       5.025   7.695  20.598  0.00  0.00     0.030 A 
ENDROOT
BRANCH   1   6
HETATM    6  C   UNL     1       3.057   6.612  19.219  0.00  0.00     0.029 A 
HETATM    7  C   UNL     1       2.806   5.437  19.949  0.00  0.00     0.019 A 
HETATM    8  C   UNL     1       1.539   4.843  19.948  0.00  0.00     0.037 A 
HETATM    9  C   UNL     1       0.526   5.398  19.175  0.00  0.00     0.068 A 
HETATM   10  C   UNL     1       0.776   6.499  18.365  0.00  0.00     0.074 A 
HETATM   11  C   UNL     1       2.038   7.092  18.377  0.00  0.00     0.081 A 
BRANCH   9  12
HETATM   12  O   UNL     1      -0.737   4.885  19.195  0.00  0.00    -0.361 OA
HETATM   13  H   UNL     1      -1.161   5.127  20.035  0.00  0.00     0.217 HD
ENDBRANCH   9  12
BRANCH  11  14
HETATM   14  O   UNL     1       2.203   8.163  17.539  0.00  0.00    -0.360 OA
HETATM   15  H   UNL     1       2.854   8.766  17.954  0.00  0.00     0.217 HD
ENDBRANCH  11  14
ENDBRANCH   1   6
BRANCH   5  16
HETATM   16  C   UNL     1       4.782   7.420  22.008  0.00  0.00    -0.022 A 
HETATM   17  C   UNL     1       5.475   6.400  22.675  0.00  0.00     0.012 A 
HETATM   18  C   UNL     1       5.372   6.255  24.061  0.00  0.00     0.001 A 
HETATM   19  C   UNL     1       4.527   7.090  24.789  0.00  0.00     0.000 A 
HETATM   20  C   UNL     1       3.771   8.054  24.128  0.00  0.00     0.001 A 
HETATM   21  C   UNL     1       3.899   8.221  22.747  0.00  0.00     0.012 A 
ENDBRANCH   5  16
TORSDOF 4
ENDMDL
MODEL 6
REMARK VINA RESULT:    -6.606      5.320      6.858
REMARK INTER + INTRA:          -8.568
REMARK INTER:                  -7.802
REMARK INTRA:                  -0.766
REMARK UNBOUND:                -0.804
REMARK  4 active torsions:
REMARK  status: ('A' for Active; 'I' for Inactive)
REMARK    1  A    between atoms: O_1  and  C_2 
REMARK    2  A    between atoms: C_5  and  C_6 
REMARK    3  A    between atoms: C_10  and  C_11 
REMARK    4  A    between atoms: C_17  and  O_18 
ROOT
HETATM    1  C   UNL     1       0.300  10.292  25.600  0.00  0.00     0.110 A 
HETATM    2  N   UNL     1      -0.315   9.933  26.742  0.00  0.00    -0.127 NA
HETATM    3  O   UNL     1       0.548   9.092  27.406  0.00  0.00    -0.224 OA
HETATM    4  C   UNL     1       1.674   8.930  26.675  0.00  0.00     0.184 A 
HETATM    5  C   UNL     1       1.589   9.662  25.513  0.00  0.00     0.030 A 
ENDROOT
BRANCH   1   6
HETATM    6  C   UNL     1      -0.391  11.167  24.640  0.00  0.00     0.029 A 
HETATM    7  C   UNL     1       0.223  12.343  24.175  0.00  0.00     0.019 A 
HETATM    8  C   UNL     1      -0.326  13.074  23.116  0.00  0.00     0.037 A 
HETATM    9  C   UNL     1      -1.523  12.656  22.547  0.00  0.00     0.068 A 
HETATM   10  C   UNL     1      -2.203  11.556  23.054  0.00  0.00     0.074 A 
HETATM   11  C   UNL     1      -1.646  10.825  24.103  0.00  0.00     0.081 A 
BRANCH   9  12
HETATM   12  O   UNL     1      -2.057  13.307  21.475  0.00  0.00    -0.361 OA
HETATM   13  H   UNL     1      -2.882  13.740  21.749  0.00  0.00     0.217 HD
ENDBRANCH   9  12
BRANCH  11  14
HETATM   14  O   UNL     1      -2.387   9.764  24.552  0.00  0.00    -0.360 OA
HETATM   15  H   UNL     1      -1.770   9.022  24.721  0.00  0.00     0.217 HD
ENDBRANCH  11  14
ENDBRANCH   1   6
BRANCH   5  16
HETATM   16  C   UNL     1       2.649   9.700  24.514  0.00  0.00    -0.022 A 
HETATM   17  C   UNL     1       3.054   8.537  23.844  0.00  0.00     0.012 A 
HETATM   18  C   UNL     1       3.940   8.605  22.766  0.00  0.00     0.001 A 
HETATM   19  C   UNL     1       4.480   9.831  22.384  0.00  0.00     0.000 A 
HETATM   20  C   UNL     1       4.150  10.983  23.093  0.00  0.00     0.001 A 
HETATM   21  C   UNL     1       3.238  10.920  24.150  0.00  0.00     0.012 A 
ENDBRANCH   5  16
TORSDOF 4
ENDMDL
MODEL 7
REMARK VINA RESULT:    -6.585      3.039      4.487
REMARK INTER + INTRA:          -8.544
REMARK INTER:                  -7.740
REMARK INTRA:                  -0.804
REMARK UNBOUND:                -0.804
REMARK  4 active torsions:
REMARK  status: ('A' for Active; 'I' for Inactive)
REMARK    1  A    between atoms: O_1  and  C_2 
REMARK    2  A    between atoms: C_5  and  C_6 
REMARK    3  A    between atoms: C_10  and  C_11 
REMARK    4  A    between atoms: C_17  and  O_18 
ROOT
HETATM    1  C   UNL     1       3.724   6.583  22.881  0.00  0.00     0.110 A 
HETATM    2  N   UNL     1       3.591   5.272  23.159  0.00  0.00    -0.127 NA
HETATM    3  O   UNL     1       2.894   5.189  24.343  0.00  0.00    -0.224 OA
HETATM    4  C   UNL     1       2.612   6.433  24.790  0.00  0.00     0.184 A 
HETATM    5  C   UNL     1       3.109   7.372  23.915  0.00  0.00     0.030 A 
ENDROOT
BRANCH   1   6
HETATM    6  C   UNL     1       4.468   7.007  21.686  0.00  0.00     0.029 A 
HETATM    7  C   UNL     1       3.808   7.658  20.628  0.00  0.00     0.019 A 
HETATM    8  C   UNL     1       4.528   8.246  19.582  0.00  0.00     0.037 A 
HETATM    9  C   UNL     1       5.914   8.145  19.566  0.00  0.00     0.068 A 
HETATM   10  C   UNL     1       6.583   7.420  20.544  0.00  0.00     0.074 A 
HETATM   11  C   UNL     1       5.862   6.844  21.589  0.00  0.00     0.081 A 
BRANCH   9  12
HETATM   12  O   UNL     1       6.653   8.756  18.597  0.00  0.00    -0.361 OA
HETATM   13  H   UNL     1       6.109   9.437  18.169  0.00  0.00     0.217 HD
ENDBRANCH   9  12
BRANCH  11  14
HETATM   14  O   UNL     1       6.596   6.135  22.503  0.00  0.00    -0.360 OA
HETATM   15  H   UNL     1       6.349   6.457  23.395  0.00  0.00     0.217 HD
ENDBRANCH  11  14
ENDBRANCH   1   6
BRANCH   5  16
HETATM   16  C   UNL     1       2.962   8.808  24.115  0.00  0.00    -0.022 A 
HETATM   17  C   UNL     1       3.904   9.709  23.599  0.00  0.00     0.012 A 
HETATM   18  C   UNL     1       3.670  11.086  23.637  0.00  0.00     0.001 A 
HETATM   19  C   UNL     1       2.520  11.581  24.247  0.00  0.00     0.000 A 
HETATM   20  C   UNL     1       1.616  10.701  24.835  0.00  0.00     0.001 A 
HETATM   21  C   UNL     1       1.833   9.322  24.768  0.00  0.00     0.012 A 
ENDBRANCH   5  16
TORSDOF 4
ENDMDL
MODEL 8
REMARK VINA RESULT:    -6.540      4.899      7.286
REMARK INTER + INTRA:          -8.491
REMARK INTER:                  -7.573
REMARK INTRA:                  -0.918
REMARK UNBOUND:                -0.804
REMARK  4 active torsions:
REMARK  status: ('A' for Active; 'I' for Inactive)
REMARK    1  A    between atoms: O_1  and  C_2 
REMARK    2  A    between atoms: C_5  and  C_6 
REMARK    3  A    between atoms: C_10  and  C_11 
REMARK    4  A    between atoms: C_17  and  O_18 
ROOT
HETATM    1  C   UNL     1       0.574   9.358  25.952  0.00  0.00     0.110 A 
HETATM    2  N   UNL     1       0.447   8.776  27.159  0.00  0.00    -0.127 NA
HETATM    3  O   UNL     1      -0.583   9.423  27.801  0.00  0.00    -0.224 OA
HETATM    4  C   UNL     1      -1.075  10.396  27.002  0.00  0.00     0.184 A 
HETATM    5  C   UNL     1      -0.389  10.416  25.809  0.00  0.00     0.030 A 
ENDROOT
BRANCH   1   6
HETATM    6  C   UNL     1       1.631   8.912  25.031  0.00  0.00     0.029 A 
HETATM    7  C   UNL     1       2.622   9.808  24.594  0.00  0.00     0.019 A 
HETATM    8  C   UNL     1       3.742   9.356  23.887  0.00  0.00     0.037 A 
HETATM    9  C   UNL     1       3.852   8.007  23.572  0.00  0.00     0.068 A 
HETATM   10  C   UNL     1       2.837   7.118  23.902  0.00  0.00     0.074 A 
HETATM   11  C   UNL     1       1.727   7.572  24.615  0.00  0.00     0.081 A 
BRANCH   9  12
HETATM   12  O   UNL     1       4.956   7.520  22.938  0.00  0.00    -0.361 OA
HETATM   13  H   UNL     1       4.904   6.550  22.917  0.00  0.00     0.217 HD
ENDBRANCH   9  12
BRANCH  11  14
HETATM   14  O   UNL     1       0.767   6.633  24.887  0.00  0.00    -0.360 OA
HETATM   15  H   UNL     1       0.773   5.983  24.154  0.00  0.00     0.217 HD
ENDBRANCH  11  14
ENDBRANCH   1   6
BRANCH   5  16
HETATM   16  C   UNL     1      -0.686  11.351  24.732  0.00  0.00    -0.022 A 
HETATM   17  C   UNL     1       0.068  12.521  24.562  0.00  0.00     0.012 A 
HETATM   18  C   UNL     1      -0.103  13.322  23.430  0.00  0.00     0.001 A 
HETATM   19  C   UNL     1      -1.072  12.995  22.484  0.00  0.00     0.000 A 
HETATM   20  C   UNL     1      -1.883  11.881  22.681  0.00  0.00     0.001 A 
HETATM   21  C   UNL     1      -1.691  11.062  23.797  0.00  0.00     0.012 A 
ENDBRANCH   5  16
TORSDOF 4
ENDMDL
MODEL 9
REMARK VINA RESULT:    -6.501      2.406      5.855
REMARK INTER + INTRA:          -8.445
REMARK INTER:                  -7.492
REMARK INTRA:                  -0.953
REMARK UNBOUND:                -0.804
REMARK  4 active torsions:
REMARK  status: ('A' for Active; 'I' for Inactive)
REMARK    1  A    between atoms: O_1  and  C_2 
REMARK    2  A    between atoms: C_5  and  C_6 
REMARK    3  A    between atoms: C_10  and  C_11 
REMARK    4  A    between atoms: C_17  and  O_18 
ROOT
HETATM    1  C   UNL     1       2.904   7.998  19.029  0.00  0.00     0.110 A 
HETATM    2  N   UNL     1       2.809   9.266  18.587  0.00  0.00    -0.127 NA
HETATM    3  O   UNL     1       1.817   9.278  17.634  0.00  0.00    -0.224 OA
HETATM    4  C   UNL     1       1.316   8.030  17.487  0.00  0.00     0.184 A 
HETATM    5  C   UNL     1       1.958   7.162  18.340  0.00  0.00     0.030 A 
ENDROOT
BRANCH   1   6
HETATM    6  C   UNL     1       3.917   7.646  20.036  0.00  0.00     0.029 A 
HETATM    7  C   UNL     1       3.531   7.179  21.304  0.00  0.00     0.019 A 
HETATM    8  C   UNL     1       4.471   6.650  22.196  0.00  0.00     0.037 A 
HETATM    9  C   UNL     1       5.814   6.631  21.839  0.00  0.00     0.068 A 
HETATM   10  C   UNL     1       6.235   7.180  20.634  0.00  0.00     0.074 A 
HETATM   11  C   UNL     1       5.293   7.697  19.745  0.00  0.00     0.081 A 
BRANCH   9  12
HETATM   12  O   UNL     1       6.751   6.069  22.654  0.00  0.00    -0.361 OA
HETATM   13  H   UNL     1       7.268   6.776  23.073  0.00  0.00     0.217 HD
ENDBRANCH   9  12
BRANCH  11  14
HETATM   14  O   UNL     1       5.793   8.232  18.588  0.00  0.00    -0.360 OA
HETATM   15  H   UNL     1       6.140   9.123  18.799  0.00  0.00     0.217 HD
ENDBRANCH  11  14
ENDBRANCH   1   6
BRANCH   5  16
HETATM   16  C   UNL     1       1.641   5.742  18.423  0.00  0.00    -0.022 A 
HETATM   17  C   UNL     1       2.527   4.773  17.931  0.00  0.00     0.012 A 
HETATM   18  C   UNL     1       2.305   3.415  18.171  0.00  0.00     0.001 A 
HETATM   19  C   UNL     1       1.161   3.005  18.852  0.00  0.00     0.000 A 
HETATM   20  C   UNL     1       0.232   3.952  19.275  0.00  0.00     0.001 A 
HETATM   21  C   UNL     1       0.470   5.312  19.065  0.00  0.00     0.012 A 
ENDBRANCH   5  16
TORSDOF 4
ENDMDL
