MODEL 1
REMARK VINA RESULT:    -7.745      0.000      0.000
REMARK INTER + INTRA:         -12.660
REMARK INTER:                 -10.670
REMARK INTRA:                  -1.989
REMARK UNBOUND:                -1.971
REMARK  7 active torsions:
REMARK  status: ('A' for Active; 'I' for Inactive)
REMARK    1  A    between atoms: C_8  and  C_9 
REMARK    2  A    between atoms: C_14  and  N_15 
REMARK       I    between atoms: N_15  and  C_17 
REMARK    3  A    between atoms: C_17  and  C_19 
REMARK    4  A    between atoms: C_20  and  O_22 
REMARK    5  A    between atoms: C_26  and  C_30 
REMARK    6  A    between atoms: C_30  and  C_31 
REMARK    7  A    between atoms: C_31  and  C_32 
ROOT
HETATM    1  C   UNL     1       3.568   7.094  18.459  0.00  0.00     0.066 A 
HETATM    2  C   UNL     1       2.713   8.201  18.352  0.00  0.00     0.083 A 
HETATM    3  C   UNL     1       1.447   8.110  17.752  0.00  0.00     0.069 A 
HETATM    4  C   UNL     1       3.063   5.824  18.088  0.00  0.00     0.035 A 
HETATM    5  C   UNL     1       1.771   5.704  17.530  0.00  0.00     0.019 A 
HETATM    6  C   UNL     1       1.017   6.853  17.338  0.00  0.00     0.065 A 
HETATM    7  C   UNL     1       0.923   4.649  17.086  0.00  0.00     0.067 A 
HETATM    8  N   UNL     1      -0.228   5.115  16.587  0.00  0.00    -0.178 NA
HETATM    9  N   UNL     1      -0.144   6.438  16.751  0.00  0.00    -0.277 N 
HETATM   10  H   UNL     1      -0.927   7.001  16.445  0.00  0.00     0.189 HD
ENDROOT
BRANCH   1  11
HETATM   11  C   UNL     1       4.960   7.094  19.032  0.00  0.00     0.260 C 
HETATM   12  N   UNL     1       5.231   7.069  20.414  0.00  0.00    -0.318 N 
HETATM   13  C   UNL     1       6.634   6.988  20.821  0.00  0.00     0.159 C 
HETATM   14  O   UNL     1       5.879   7.084  18.208  0.00  0.00    -0.267 OA
BRANCH  12  15
HETATM   15  C   UNL     1       4.284   7.217  21.454  0.00  0.00     0.037 C 
HETATM   16  C   UNL     1       3.548   6.133  21.912  0.00  0.00     0.030 C 
HETATM   17  C   UNL     1       2.869   6.219  23.128  0.00  0.00     0.010 C 
HETATM   18  C   UNL     1       2.987   7.360  23.943  0.00  0.00    -0.054 C 
HETATM   19  C   UNL     1       3.538   8.511  23.357  0.00  0.00     0.010 C 
HETATM   20  C   UNL     1       4.173   8.446  22.113  0.00  0.00     0.030 C 
BRANCH  18  21
HETATM   21  C   UNL     1       2.600   7.318  25.428  0.00  0.00     0.022 C 
HETATM   22  C   UNL     1       1.256   6.606  25.709  0.00  0.00     0.037 C 
HETATM   23  C   UNL     1       0.069   7.335  25.078  0.00  0.00     0.235 C 
HETATM   24  N   UNL     1       0.002   8.775  25.525  0.00  0.00    -0.075 N 
HETATM   25  C   UNL     1       1.316   9.509  25.430  0.00  0.00     0.235 C 
HETATM   26  C   UNL     1      -0.704   8.977  26.833  0.00  0.00     0.269 C 
HETATM   27  H   UNL     1      -0.609   9.218  24.825  0.00  0.00     0.279 HD
HETATM   28  C   UNL     1       2.451   8.725  26.065  0.00  0.00     0.037 C 
ENDBRANCH  18  21
ENDBRANCH  12  15
ENDBRANCH   1  11
BRANCH   2  29
HETATM   29  O   UNL     1       2.976   9.445  18.865  0.00  0.00    -0.360 OA
HETATM   30  H   UNL     1       3.618   9.327  19.591  0.00  0.00     0.217 HD
ENDBRANCH   2  29
BRANCH   7  31
HETATM   31  C   UNL     1       1.169   3.175  17.104  0.00  0.00     0.063 C 
BRANCH  31  32
HETATM   32  C   UNL     1       0.583   2.493  18.348  0.00  0.00     0.014 C 
BRANCH  32  33
HETATM   33  C   UNL     1       1.578   2.291  19.523  0.00  0.00    -0.051 C 
HETATM   34  C   UNL     1       1.496   3.455  20.522  0.00  0.00     0.014 C 
HETATM   35  C   UNL     1       1.198   0.989  20.255  0.00  0.00     0.014 C 
HETATM   36  C   UNL     1       3.022   2.158  19.013  0.00  0.00     0.014 C 
ENDBRANCH  32  33
ENDBRANCH  31  32
ENDBRANCH   7  31
TORSDOF 7
ENDMDL
MODEL 2
REMARK VINA RESULT:    -7.625      1.688      2.345
REMARK INTER + INTRA:         -12.494
REMARK INTER:                 -10.393
REMARK INTRA:                  -2.101
REMARK UNBOUND:                -1.971
REMARK  7 active torsions:
REMARK  status: ('A' for Active; 'I' for Inactive)
REMARK    1  A    between atoms: C_8  and  C_9 
REMARK    2  A    between atoms: C_14  and  N_15 
REMARK       I    between atoms: N_15  and  C_17 
REMARK    3  A    between atoms: C_17  and  C_19 
REMARK    4  A    between atoms: C_20  and  O_22 
REMARK    5  A    between atoms: C_26  and  C_30 
REMARK    6  A    between atoms: C_30  and  C_31 
REMARK    7  A    between atoms: C_31  and  C_32 
ROOT
HETATM    1  C   UNL     1       3.756   7.336  18.475  0.00  0.00     0.066 A 
HETATM    2  C   UNL     1       2.852   8.407  18.417  0.00  0.00     0.083 A 
HETATM    3  C   UNL     1       1.643   8.324  17.710  0.00  0.00     0.069 A 
HETATM    4  C   UNL     1       3.352   6.094  17.931  0.00  0.00     0.035 A 
HETATM    5  C   UNL     1       2.116   5.975  17.259  0.00  0.00     0.019 A 
HETATM    6  C   UNL     1       1.316   7.102  17.130  0.00  0.00     0.065 A 
HETATM    7  C   UNL     1       1.364   4.938  16.637  0.00  0.00     0.067 A 
HETATM    8  N   UNL     1       0.230   5.402  16.098  0.00  0.00    -0.178 NA
HETATM    9  N   UNL     1       0.228   6.701  16.409  0.00  0.00    -0.277 N 
HETATM   10  H   UNL     1      -0.560   7.257  16.102  0.00  0.00     0.189 HD
ENDROOT
BRANCH   1  11
HETATM   11  C   UNL     1       5.099   7.338  19.157  0.00  0.00     0.260 C 
HETATM   12  N   UNL     1       5.291   6.940  20.494  0.00  0.00    -0.318 N 
HETATM   13  C   UNL     1       6.665   6.915  20.996  0.00  0.00     0.159 C 
HETATM   14  O   UNL     1       6.055   7.684  18.457  0.00  0.00    -0.267 OA
BRANCH  12  15
HETATM   15  C   UNL     1       4.274   6.658  21.436  0.00  0.00     0.037 C 
HETATM   16  C   UNL     1       3.802   5.364  21.615  0.00  0.00     0.030 C 
HETATM   17  C   UNL     1       3.050   5.050  22.747  0.00  0.00     0.010 C 
HETATM   18  C   UNL     1       2.832   6.004  23.758  0.00  0.00    -0.054 C 
HETATM   19  C   UNL     1       3.116   7.344  23.446  0.00  0.00     0.010 C 
HETATM   20  C   UNL     1       3.823   7.673  22.286  0.00  0.00     0.030 C 
BRANCH  18  21
HETATM   21  C   UNL     1       2.376   5.583  25.162  0.00  0.00     0.022 C 
HETATM   22  C   UNL     1       2.733   6.598  26.272  0.00  0.00     0.037 C 
HETATM   23  C   UNL     1       4.243   6.759  26.449  0.00  0.00     0.235 C 
HETATM   24  N   UNL     1       4.914   5.434  26.717  0.00  0.00    -0.075 N 
HETATM   25  C   UNL     1       4.503   4.335  25.770  0.00  0.00     0.235 C 
HETATM   26  C   UNL     1       4.895   5.019  28.159  0.00  0.00     0.269 C 
HETATM   27  H   UNL     1       5.906   5.617  26.509  0.00  0.00     0.279 HD
HETATM   28  C   UNL     1       2.993   4.239  25.632  0.00  0.00     0.037 C 
ENDBRANCH  18  21
ENDBRANCH  12  15
ENDBRANCH   1  11
BRANCH   2  29
HETATM   29  O   UNL     1       3.006   9.598  19.081  0.00  0.00    -0.360 OA
HETATM   30  H   UNL     1       2.181   9.759  19.579  0.00  0.00     0.217 HD
ENDBRANCH   2  29
BRANCH   7  31
HETATM   31  C   UNL     1       1.689   3.484  16.517  0.00  0.00     0.063 C 
BRANCH  31  32
HETATM   32  C   UNL     1       0.894   2.617  17.503  0.00  0.00     0.014 C 
BRANCH  32  33
HETATM   33  C   UNL     1       1.548   2.432  18.899  0.00  0.00    -0.051 C 
HETATM   34  C   UNL     1       1.038   3.487  19.892  0.00  0.00     0.014 C 
HETATM   35  C   UNL     1       1.165   1.037  19.428  0.00  0.00     0.014 C 
HETATM   36  C   UNL     1       3.081   2.515  18.811  0.00  0.00     0.014 C 
ENDBRANCH  32  33
ENDBRANCH  31  32
ENDBRANCH   7  31
TORSDOF 7
ENDMDL
MODEL 3
REMARK VINA RESULT:    -7.425      3.973      6.822
REMARK INTER + INTRA:         -12.217
REMARK INTER:                 -10.916
REMARK INTRA:                  -1.301
REMARK UNBOUND:                -1.971
REMARK  7 active torsions:
REMARK  status: ('A' for Active; 'I' for Inactive)
REMARK    1  A    between atoms: C_8  and  C_9 
REMARK    2  A    between atoms: C_14  and  N_15 
REMARK       I    between atoms: N_15  and  C_17 
REMARK    3  A    between atoms: C_17  and  C_19 
REMARK    4  A    between atoms: C_20  and  O_22 
REMARK    5  A    between atoms: C_26  and  C_30 
REMARK    6  A    between atoms: C_30  and  C_31 
REMARK    7  A    between atoms: C_31  and  C_32 
ROOT
HETATM    1  C   UNL     1       3.129   8.794  24.831  0.00  0.00     0.066 A 
HETATM    2  C   UNL     1       3.386   8.231  26.090  0.00  0.00     0.083 A 
HETATM    3  C   UNL     1       4.206   7.104  26.249  0.00  0.00     0.069 A 
HETATM    4  C   UNL     1       3.850   8.296  23.720  0.00  0.00     0.035 A 
HETATM    5  C   UNL     1       4.721   7.195  23.868  0.00  0.00     0.019 A 
HETATM    6  C   UNL     1       4.843   6.603  25.117  0.00  0.00     0.065 A 
HETATM    7  C   UNL     1       5.616   6.456  23.042  0.00  0.00     0.067 A 
HETATM    8  N   UNL     1       6.183   5.441  23.707  0.00  0.00    -0.178 NA
HETATM    9  N   UNL     1       5.700   5.555  24.947  0.00  0.00    -0.277 N 
HETATM   10  H   UNL     1       6.011   4.880  25.635  0.00  0.00     0.189 HD
ENDROOT
BRANCH   1  11
HETATM   11  C   UNL     1       2.226   9.965  24.544  0.00  0.00     0.260 C 
HETATM   12  N   UNL     1       0.896  10.048  24.998  0.00  0.00    -0.318 N 
HETATM   13  C   UNL     1       0.165  11.283  24.711  0.00  0.00     0.159 C 
HETATM   14  O   UNL     1       2.733  10.887  23.899  0.00  0.00    -0.267 OA
BRANCH  12  15
HETATM   15  C   UNL     1       0.158   9.013  25.619  0.00  0.00     0.037 C 
HETATM   16  C   UNL     1      -0.059   7.802  24.976  0.00  0.00     0.030 C 
HETATM   17  C   UNL     1      -0.498   6.697  25.706  0.00  0.00     0.010 C 
HETATM   18  C   UNL     1      -0.642   6.765  27.104  0.00  0.00    -0.054 C 
HETATM   19  C   UNL     1      -0.642   8.043  27.686  0.00  0.00     0.010 C 
HETATM   20  C   UNL     1      -0.256   9.166  26.946  0.00  0.00     0.030 C 
BRANCH  18  21
HETATM   21  C   UNL     1      -0.720   5.492  27.957  0.00  0.00     0.022 C 
HETATM   22  C   UNL     1       0.179   5.520  29.215  0.00  0.00     0.037 C 
HETATM   23  C   UNL     1       1.666   5.594  28.866  0.00  0.00     0.235 C 
HETATM   24  N   UNL     1       2.078   4.464  27.955  0.00  0.00    -0.075 N 
HETATM   25  C   UNL     1       1.162   4.263  26.774  0.00  0.00     0.235 C 
HETATM   26  C   UNL     1       2.418   3.191  28.672  0.00  0.00     0.269 C 
HETATM   27  H   UNL     1       2.970   4.787  27.556  0.00  0.00     0.279 HD
HETATM   28  C   UNL     1      -0.298   4.211  27.190  0.00  0.00     0.037 C 
ENDBRANCH  18  21
ENDBRANCH  12  15
ENDBRANCH   1  11
BRANCH   2  29
HETATM   29  O   UNL     1       2.935   8.740  27.281  0.00  0.00    -0.360 OA
HETATM   30  H   UNL     1       2.676   7.981  27.839  0.00  0.00     0.217 HD
ENDBRANCH   2  29
BRANCH   7  31
HETATM   31  C   UNL     1       5.959   6.669  21.602  0.00  0.00     0.063 C 
BRANCH  31  32
HETATM   32  C   UNL     1       4.747   6.501  20.675  0.00  0.00     0.014 C 
BRANCH  32  33
HETATM   33  C   UNL     1       4.777   7.362  19.383  0.00  0.00    -0.051 C 
HETATM   34  C   UNL     1       6.109   8.116  19.253  0.00  0.00     0.014 C 
HETATM   35  C   UNL     1       4.628   6.419  18.174  0.00  0.00     0.014 C 
HETATM   36  C   UNL     1       3.617   8.371  19.359  0.00  0.00     0.014 C 
ENDBRANCH  32  33
ENDBRANCH  31  32
ENDBRANCH   7  31
TORSDOF 7
ENDMDL
MODEL 4
REMARK VINA RESULT:    -7.334      1.484      2.104
REMARK INTER + INTRA:         -12.092
REMARK INTER:                 -10.070
REMARK INTRA:                  -2.022
REMARK UNBOUND:                -1.971
REMARK  7 active torsions:
REMARK  status: ('A' for Active; 'I' for Inactive)
REMARK    1  A    between atoms: C_8  and  C_9 
REMARK    2  A    between atoms: C_14  and  N_15 
REMARK       I    between atoms: N_15  and  C_17 
REMARK    3  A    between atoms: C_17  and  C_19 
REMARK    4  A    between atoms: C_20  and  O_22 
REMARK    5  A    between atoms: C_26  and  C_30 
REMARK    6  A    between atoms: C_30  and  C_31 
REMARK    7  A    between atoms: C_31  and  C_32 
ROOT
HETATM    1  C   UNL     1       3.568   6.718  19.021  0.00  0.00     0.066 A 
HETATM    2  C   UNL     1       2.593   7.598  18.527  0.00  0.00     0.083 A 
HETATM    3  C   UNL     1       1.260   7.203  18.338  0.00  0.00     0.069 A 
HETATM    4  C   UNL     1       3.145   5.449  19.485  0.00  0.00     0.035 A 
HETATM    5  C   UNL     1       1.797   5.051  19.351  0.00  0.00     0.019 A 
HETATM    6  C   UNL     1       0.902   5.921  18.744  0.00  0.00     0.065 A 
HETATM    7  C   UNL     1       1.002   3.925  19.711  0.00  0.00     0.067 A 
HETATM    8  N   UNL     1      -0.262   4.054  19.289  0.00  0.00    -0.178 NA
HETATM    9  N   UNL     1      -0.292   5.259  18.714  0.00  0.00    -0.277 N 
HETATM   10  H   UNL     1      -1.173   5.573  18.325  0.00  0.00     0.189 HD
ENDROOT
BRANCH   1  11
HETATM   11  C   UNL     1       5.031   7.021  19.211  0.00  0.00     0.260 C 
HETATM   12  N   UNL     1       5.633   7.181  20.473  0.00  0.00    -0.318 N 
HETATM   13  C   UNL     1       7.081   7.391  20.503  0.00  0.00     0.159 C 
HETATM   14  O   UNL     1       5.701   7.094  18.176  0.00  0.00    -0.267 OA
BRANCH  12  15
HETATM   15  C   UNL     1       4.963   7.260  21.716  0.00  0.00     0.037 C 
HETATM   16  C   UNL     1       4.315   8.424  22.108  0.00  0.00     0.030 C 
HETATM   17  C   UNL     1       3.403   8.388  23.163  0.00  0.00     0.010 C 
HETATM   18  C   UNL     1       3.062   7.172  23.784  0.00  0.00    -0.054 C 
HETATM   19  C   UNL     1       3.891   6.069  23.528  0.00  0.00     0.010 C 
HETATM   20  C   UNL     1       4.847   6.113  22.508  0.00  0.00     0.030 C 
BRANCH  18  21
HETATM   21  C   UNL     1       1.794   7.047  24.641  0.00  0.00     0.022 C 
HETATM   22  C   UNL     1       1.145   8.401  25.008  0.00  0.00     0.037 C 
HETATM   23  C   UNL     1       2.054   9.262  25.886  0.00  0.00     0.235 C 
HETATM   24  N   UNL     1       2.474   8.528  27.135  0.00  0.00    -0.075 N 
HETATM   25  C   UNL     1       2.980   7.129  26.885  0.00  0.00     0.235 C 
HETATM   26  C   UNL     1       1.484   8.614  28.259  0.00  0.00     0.269 C 
HETATM   27  H   UNL     1       3.293   9.059  27.465  0.00  0.00     0.279 HD
HETATM   28  C   UNL     1       2.037   6.335  25.997  0.00  0.00     0.037 C 
ENDBRANCH  18  21
ENDBRANCH  12  15
ENDBRANCH   1  11
BRANCH   2  29
HETATM   29  O   UNL     1       2.807   8.923  18.244  0.00  0.00    -0.360 OA
HETATM   30  H   UNL     1       3.769   9.078  18.299  0.00  0.00     0.217 HD
ENDBRANCH   2  29
BRANCH   7  31
HETATM   31  C   UNL     1       1.404   2.689  20.449  0.00  0.00     0.063 C 
BRANCH  31  32
HETATM   32  C   UNL     1       2.400   1.828  19.661  0.00  0.00     0.014 C 
BRANCH  32  33
HETATM   33  C   UNL     1       3.828   1.744  20.266  0.00  0.00    -0.051 C 
HETATM   34  C   UNL     1       3.911   2.512  21.594  0.00  0.00     0.014 C 
HETATM   35  C   UNL     1       4.149   0.262  20.537  0.00  0.00     0.014 C 
HETATM   36  C   UNL     1       4.879   2.299  19.291  0.00  0.00     0.014 C 
ENDBRANCH  32  33
ENDBRANCH  31  32
ENDBRANCH   7  31
TORSDOF 7
ENDMDL
MODEL 5
REMARK VINA RESULT:    -7.273      2.106      6.901
REMARK INTER + INTRA:         -12.008
REMARK INTER:                 -10.262
REMARK INTRA:                  -1.746
REMARK UNBOUND:                -1.971
REMARK  7 active torsions:
REMARK  status: ('A' for Active; 'I' for Inactive)
REMARK    1  A    between atoms: C_8  and  C_9 
REMARK    2  A    between atoms: C_14  and  N_15 
REMARK       I    between atoms: N_15  and  C_17 
REMARK    3  A    between atoms: C_17  and  C_19 
REMARK    4  A    between atoms: C_20  and  O_22 
REMARK    5  A    between atoms: C_26  and  C_30 
REMARK    6  A    between atoms: C_30  and  C_31 
REMARK    7  A    between atoms: C_31  and  C_32 
ROOT
HETATM    1  C   UNL     1       5.376   6.013  21.629  0.00  0.00     0.066 A 
HETATM    2  C   UNL     1       5.001   4.712  21.259  0.00  0.00     0.083 A 
HETATM    3  C   UNL     1       4.149   3.929  22.052  0.00  0.00     0.069 A 
HETATM    4  C   UNL     1       4.744   6.593  22.756  0.00  0.00     0.035 A 
HETATM    5  C   UNL     1       3.844   5.837  23.538  0.00  0.00     0.019 A 
HETATM    6  C   UNL     1       3.604   4.515  23.190  0.00  0.00     0.065 A 
HETATM    7  C   UNL     1       3.010   6.058  24.672  0.00  0.00     0.067 A 
HETATM    8  N   UNL     1       2.370   4.942  25.042  0.00  0.00    -0.178 NA
HETATM    9  N   UNL     1       2.745   4.035  24.136  0.00  0.00    -0.277 N 
HETATM   10  H   UNL     1       2.364   3.101  24.222  0.00  0.00     0.189 HD
ENDROOT
BRANCH   1  11
HETATM   11  C   UNL     1       6.322   6.916  20.882  0.00  0.00     0.260 C 
HETATM   12  N   UNL     1       5.972   7.604  19.706  0.00  0.00    -0.318 N 
HETATM   13  C   UNL     1       6.970   8.510  19.137  0.00  0.00     0.159 C 
HETATM   14  O   UNL     1       7.442   7.050  21.385  0.00  0.00    -0.267 OA
BRANCH  12  15
HETATM   15  C   UNL     1       4.784   7.432  18.958  0.00  0.00     0.037 C 
HETATM   16  C   UNL     1       4.715   6.508  17.925  0.00  0.00     0.030 C 
HETATM   17  C   UNL     1       3.472   6.123  17.420  0.00  0.00     0.010 C 
HETATM   18  C   UNL     1       2.279   6.593  17.999  0.00  0.00    -0.054 C 
HETATM   19  C   UNL     1       2.380   7.688  18.872  0.00  0.00     0.010 C 
HETATM   20  C   UNL     1       3.626   8.116  19.342  0.00  0.00     0.030 C 
BRANCH  18  21
HETATM   21  C   UNL     1       0.940   5.888  17.741  0.00  0.00     0.022 C 
HETATM   22  C   UNL     1       0.103   5.639  19.018  0.00  0.00     0.037 C 
HETATM   23  C   UNL     1       0.797   4.686  19.991  0.00  0.00     0.235 C 
HETATM   24  N   UNL     1       1.145   3.375  19.329  0.00  0.00    -0.075 N 
HETATM   25  C   UNL     1       1.831   3.524  17.995  0.00  0.00     0.235 C 
HETATM   26  C   UNL     1       0.023   2.379  19.318  0.00  0.00     0.269 C 
HETATM   27  H   UNL     1       1.852   2.966  19.956  0.00  0.00     0.279 HD
HETATM   28  C   UNL     1       1.096   4.492  17.083  0.00  0.00     0.037 C 
ENDBRANCH  18  21
ENDBRANCH  12  15
ENDBRANCH   1  11
BRANCH   2  29
HETATM   29  O   UNL     1       5.356   4.100  20.085  0.00  0.00    -0.360 OA
HETATM   30  H   UNL     1       6.258   4.402  19.863  0.00  0.00     0.217 HD
ENDBRANCH   2  29
BRANCH   7  31
HETATM   31  C   UNL     1       2.797   7.317  25.450  0.00  0.00     0.063 C 
BRANCH  31  32
HETATM   32  C   UNL     1       1.868   8.305  24.733  0.00  0.00     0.014 C 
BRANCH  32  33
HETATM   33  C   UNL     1       0.474   8.498  25.388  0.00  0.00    -0.051 C 
HETATM   34  C   UNL     1      -0.167   9.822  24.942  0.00  0.00     0.014 C 
HETATM   35  C   UNL     1      -0.434   7.338  24.937  0.00  0.00     0.014 C 
HETATM   36  C   UNL     1       0.571   8.472  26.922  0.00  0.00     0.014 C 
ENDBRANCH  32  33
ENDBRANCH  31  32
ENDBRANCH   7  31
TORSDOF 7
ENDMDL
MODEL 6
REMARK VINA RESULT:    -7.223      2.511      4.598
REMARK INTER + INTRA:         -11.938
REMARK INTER:                 -10.265
REMARK INTRA:                  -1.673
REMARK UNBOUND:                -1.971
REMARK  7 active torsions:
REMARK  status: ('A' for Active; 'I' for Inactive)
REMARK    1  A    between atoms: C_8  and  C_9 
REMARK    2  A    between atoms: C_14  and  N_15 
REMARK       I    between atoms: N_15  and  C_17 
REMARK    3  A    between atoms: C_17  and  C_19 
REMARK    4  A    between atoms: C_20  and  O_22 
REMARK    5  A    between atoms: C_26  and  C_30 
REMARK    6  A    between atoms: C_30  and  C_31 
REMARK    7  A    between atoms: C_31  and  C_32 
ROOT
HETATM    1  C   UNL     1       3.153   3.899  21.078  0.00  0.00     0.066 A 
HETATM    2  C   UNL     1       1.867   3.424  20.781  0.00  0.00     0.083 A 
HETATM    3  C   UNL     1       0.948   4.177  20.034  0.00  0.00     0.069 A 
HETATM    4  C   UNL     1       3.575   5.104  20.467  0.00  0.00     0.035 A 
HETATM    5  C   UNL     1       2.682   5.852  19.669  0.00  0.00     0.019 A 
HETATM    6  C   UNL     1       1.383   5.390  19.509  0.00  0.00     0.065 A 
HETATM    7  C   UNL     1       2.731   7.039  18.884  0.00  0.00     0.067 A 
HETATM    8  N   UNL     1       1.539   7.331  18.349  0.00  0.00    -0.178 NA
HETATM    9  N   UNL     1       0.751   6.325  18.740  0.00  0.00    -0.277 N 
HETATM   10  H   UNL     1      -0.214   6.338  18.434  0.00  0.00     0.189 HD
ENDROOT
BRANCH   1  11
HETATM   11  C   UNL     1       4.192   3.199  21.913  0.00  0.00     0.260 C 
HETATM   12  N   UNL     1       4.506   3.571  23.234  0.00  0.00    -0.318 N 
HETATM   13  C   UNL     1       5.479   2.746  23.950  0.00  0.00     0.159 C 
HETATM   14  O   UNL     1       4.750   2.235  21.378  0.00  0.00    -0.267 OA
BRANCH  12  15
HETATM   15  C   UNL     1       4.048   4.726  23.908  0.00  0.00     0.037 C 
HETATM   16  C   UNL     1       4.688   5.948  23.752  0.00  0.00     0.030 C 
HETATM   17  C   UNL     1       4.050   7.122  24.155  0.00  0.00     0.010 C 
HETATM   18  C   UNL     1       2.729   7.098  24.639  0.00  0.00    -0.054 C 
HETATM   19  C   UNL     1       2.202   5.847  24.999  0.00  0.00     0.010 C 
HETATM   20  C   UNL     1       2.862   4.665  24.648  0.00  0.00     0.030 C 
BRANCH  18  21
HETATM   21  C   UNL     1       1.881   8.377  24.697  0.00  0.00     0.022 C 
HETATM   22  C   UNL     1       2.323   9.377  25.790  0.00  0.00     0.037 C 
HETATM   23  C   UNL     1       2.158   8.807  27.200  0.00  0.00     0.235 C 
HETATM   24  N   UNL     1       0.742   8.349  27.450  0.00  0.00    -0.075 N 
HETATM   25  C   UNL     1       0.171   7.489  26.351  0.00  0.00     0.235 C 
HETATM   26  C   UNL     1      -0.184   9.441  27.897  0.00  0.00     0.269 C 
HETATM   27  H   UNL     1       0.828   7.727  28.266  0.00  0.00     0.279 HD
HETATM   28  C   UNL     1       0.380   8.108  24.979  0.00  0.00     0.037 C 
ENDBRANCH  18  21
ENDBRANCH  12  15
ENDBRANCH   1  11
BRANCH   2  29
HETATM   29  O   UNL     1       1.395   2.180  21.116  0.00  0.00    -0.360 OA
HETATM   30  H   UNL     1       1.307   1.672  20.287  0.00  0.00     0.217 HD
ENDBRANCH   2  29
BRANCH   7  31
HETATM   31  C   UNL     1       3.891   7.944  18.621  0.00  0.00     0.063 C 
BRANCH  31  32
HETATM   32  C   UNL     1       5.242   7.265  18.883  0.00  0.00     0.014 C 
BRANCH  32  33
HETATM   33  C   UNL     1       6.096   7.901  20.013  0.00  0.00    -0.051 C 
HETATM   34  C   UNL     1       6.834   6.823  20.821  0.00  0.00     0.014 C 
HETATM   35  C   UNL     1       7.141   8.827  19.362  0.00  0.00     0.014 C 
HETATM   36  C   UNL     1       5.225   8.741  20.962  0.00  0.00     0.014 C 
ENDBRANCH  32  33
ENDBRANCH  31  32
ENDBRANCH   7  31
TORSDOF 7
ENDMDL
MODEL 7
REMARK VINA RESULT:    -7.191      3.066      6.001
REMARK INTER + INTRA:         -11.894
REMARK INTER:                  -9.923
REMARK INTRA:                  -1.971
REMARK UNBOUND:                -1.971
REMARK  7 active torsions:
REMARK  status: ('A' for Active; 'I' for Inactive)
REMARK    1  A    between atoms: C_8  and  C_9 
REMARK    2  A    between atoms: C_14  and  N_15 
REMARK       I    between atoms: N_15  and  C_17 
REMARK    3  A    between atoms: C_17  and  C_19 
REMARK    4  A    between atoms: C_20  and  O_22 
REMARK    5  A    between atoms: C_26  and  C_30 
REMARK    6  A    between atoms: C_30  and  C_31 
REMARK    7  A    between atoms: C_31  and  C_32 
ROOT
HETATM    1  C   UNL     1       4.602   5.627  21.438  0.00  0.00     0.066 A 
HETATM    2  C   UNL     1       3.394   5.950  22.074  0.00  0.00     0.083 A 
HETATM    3  C   UNL     1       2.390   4.995  22.297  0.00  0.00     0.069 A 
HETATM    4  C   UNL     1       4.865   4.263  21.162  0.00  0.00     0.035 A 
HETATM    5  C   UNL     1       3.888   3.279  21.427  0.00  0.00     0.019 A 
HETATM    6  C   UNL     1       2.664   3.676  21.947  0.00  0.00     0.065 A 
HETATM    7  C   UNL     1       3.785   1.862  21.334  0.00  0.00     0.067 A 
HETATM    8  N   UNL     1       2.570   1.427  21.691  0.00  0.00    -0.178 NA
HETATM    9  N   UNL     1       1.921   2.536  22.053  0.00  0.00    -0.277 N 
HETATM   10  H   UNL     1       0.966   2.437  22.375  0.00  0.00     0.189 HD
ENDROOT
BRANCH   1  11
HETATM   11  C   UNL     1       5.717   6.581  21.102  0.00  0.00     0.260 C 
HETATM   12  N   UNL     1       5.698   7.434  19.981  0.00  0.00    -0.318 N 
HETATM   13  C   UNL     1       6.815   8.366  19.829  0.00  0.00     0.159 C 
HETATM   14  O   UNL     1       6.662   6.602  21.896  0.00  0.00    -0.267 OA
BRANCH  12  15
HETATM   15  C   UNL     1       4.753   7.411  18.929  0.00  0.00     0.037 C 
HETATM   16  C   UNL     1       4.784   6.418  17.959  0.00  0.00     0.030 C 
HETATM   17  C   UNL     1       3.678   6.221  17.132  0.00  0.00     0.010 C 
HETATM   18  C   UNL     1       2.494   6.957  17.320  0.00  0.00    -0.054 C 
HETATM   19  C   UNL     1       2.570   8.094  18.140  0.00  0.00     0.010 C 
HETATM   20  C   UNL     1       3.698   8.329  18.933  0.00  0.00     0.030 C 
BRANCH  18  21
HETATM   21  C   UNL     1       1.163   6.488  16.715  0.00  0.00     0.022 C 
HETATM   22  C   UNL     1       0.018   6.346  17.744  0.00  0.00     0.037 C 
HETATM   23  C   UNL     1       0.305   5.267  18.788  0.00  0.00     0.235 C 
HETATM   24  N   UNL     1       0.595   3.934  18.142  0.00  0.00    -0.075 N 
HETATM   25  C   UNL     1       1.594   4.003  17.016  0.00  0.00     0.235 C 
HETATM   26  C   UNL     1      -0.630   3.136  17.808  0.00  0.00     0.269 C 
HETATM   27  H   UNL     1       1.061   3.399  18.889  0.00  0.00     0.279 HD
HETATM   28  C   UNL     1       1.256   5.102  16.023  0.00  0.00     0.037 C 
ENDBRANCH  18  21
ENDBRANCH  12  15
ENDBRANCH   1  11
BRANCH   2  29
HETATM   29  O   UNL     1       3.090   7.182  22.595  0.00  0.00    -0.360 OA
HETATM   30  H   UNL     1       2.275   7.077  23.125  0.00  0.00     0.217 HD
ENDBRANCH   2  29
BRANCH   7  31
HETATM   31  C   UNL     1       4.817   0.872  20.897  0.00  0.00     0.063 C 
BRANCH  31  32
HETATM   32  C   UNL     1       4.380   0.069  19.663  0.00  0.00     0.014 C 
BRANCH  32  33
HETATM   33  C   UNL     1       5.106   0.439  18.341  0.00  0.00    -0.051 C 
HETATM   34  C   UNL     1       4.837   1.901  17.954  0.00  0.00     0.014 C 
HETATM   35  C   UNL     1       6.620   0.260  18.558  0.00  0.00     0.014 C 
HETATM   36  C   UNL     1       4.667  -0.481  17.190  0.00  0.00     0.014 C 
ENDBRANCH  32  33
ENDBRANCH  31  32
ENDBRANCH   7  31
TORSDOF 7
ENDMDL
MODEL 8
REMARK VINA RESULT:    -7.095      2.551      7.249
REMARK INTER + INTRA:         -11.762
REMARK INTER:                  -9.835
REMARK INTRA:                  -1.927
REMARK UNBOUND:                -1.971
REMARK  7 active torsions:
REMARK  status: ('A' for Active; 'I' for Inactive)
REMARK    1  A    between atoms: C_8  and  C_9 
REMARK    2  A    between atoms: C_14  and  N_15 
REMARK       I    between atoms: N_15  and  C_17 
REMARK    3  A    between atoms: C_17  and  C_19 
REMARK    4  A    between atoms: C_20  and  O_22 
REMARK    5  A    between atoms: C_26  and  C_30 
REMARK    6  A    between atoms: C_30  and  C_31 
REMARK    7  A    between atoms: C_31  and  C_32 
ROOT
HETATM    1  C   UNL     1       3.819   6.685  19.234  0.00  0.00     0.066 A 
HETATM    2  C   UNL     1       4.475   5.764  18.405  0.00  0.00     0.083 A 
HETATM    3  C   UNL     1       4.914   4.517  18.877  0.00  0.00     0.069 A 
HETATM    4  C   UNL     1       3.457   6.268  20.538  0.00  0.00     0.035 A 
HETATM    5  C   UNL     1       3.845   4.996  21.015  0.00  0.00     0.019 A 
HETATM    6  C   UNL     1       4.597   4.174  20.188  0.00  0.00     0.065 A 
HETATM    7  C   UNL     1       3.652   4.224  22.196  0.00  0.00     0.067 A 
HETATM    8  N   UNL     1       4.300   3.054  22.135  0.00  0.00    -0.178 NA
HETATM    9  N   UNL     1       4.857   3.052  20.921  0.00  0.00    -0.277 N 
HETATM   10  H   UNL     1       5.398   2.240  20.653  0.00  0.00     0.189 HD
ENDROOT
BRANCH   1  11
HETATM   11  C   UNL     1       3.357   8.065  18.846  0.00  0.00     0.260 C 
HETATM   12  N   UNL     1       2.207   8.309  18.071  0.00  0.00    -0.318 N 
HETATM   13  C   UNL     1       1.836   9.706  17.843  0.00  0.00     0.159 C 
HETATM   14  O   UNL     1       4.038   8.999  19.278  0.00  0.00    -0.267 OA
BRANCH  12  15
HETATM   15  C   UNL     1       1.426   7.337  17.405  0.00  0.00     0.037 C 
HETATM   16  C   UNL     1       1.667   7.010  16.077  0.00  0.00     0.030 C 
HETATM   17  C   UNL     1       1.118   5.847  15.538  0.00  0.00     0.010 C 
HETATM   18  C   UNL     1       0.392   4.949  16.342  0.00  0.00    -0.054 C 
HETATM   19  C   UNL     1      -0.028   5.413  17.599  0.00  0.00     0.010 C 
HETATM   20  C   UNL     1       0.476   6.606  18.126  0.00  0.00     0.030 C 
BRANCH  18  21
HETATM   21  C   UNL     1       0.138   3.505  15.889  0.00  0.00     0.022 C 
HETATM   22  C   UNL     1      -0.651   2.654  16.911  0.00  0.00     0.037 C 
HETATM   23  C   UNL     1       0.116   2.460  18.220  0.00  0.00     0.235 C 
HETATM   24  N   UNL     1       1.479   1.860  17.981  0.00  0.00    -0.075 N 
HETATM   25  C   UNL     1       2.263   2.536  16.885  0.00  0.00     0.235 C 
HETATM   26  C   UNL     1       1.480   0.363  17.882  0.00  0.00     0.269 C 
HETATM   27  H   UNL     1       1.991   2.066  18.850  0.00  0.00     0.279 HD
HETATM   28  C   UNL     1       1.440   2.706  15.619  0.00  0.00     0.037 C 
ENDBRANCH  18  21
ENDBRANCH  12  15
ENDBRANCH   1  11
BRANCH   2  29
HETATM   29  O   UNL     1       4.697   5.939  17.063  0.00  0.00    -0.360 OA
HETATM   30  H   UNL     1       5.435   6.572  16.973  0.00  0.00     0.217 HD
ENDBRANCH   2  29
BRANCH   7  31
HETATM   31  C   UNL     1       2.867   4.562  23.422  0.00  0.00     0.063 C 
BRANCH  31  32
HETATM   32  C   UNL     1       3.746   5.108  24.555  0.00  0.00     0.014 C 
BRANCH  32  33
HETATM   33  C   UNL     1       3.645   6.638  24.795  0.00  0.00    -0.051 C 
HETATM   34  C   UNL     1       4.825   7.378  24.147  0.00  0.00     0.014 C 
HETATM   35  C   UNL     1       2.339   7.140  24.150  0.00  0.00     0.014 C 
HETATM   36  C   UNL     1       3.602   6.965  26.297  0.00  0.00     0.014 C 
ENDBRANCH  32  33
ENDBRANCH  31  32
ENDBRANCH   7  31
TORSDOF 7
ENDMDL
MODEL 9
REMARK VINA RESULT:    -7.083      2.948      7.336
REMARK INTER + INTRA:         -11.745
REMARK INTER:                  -9.759
REMARK INTRA:                  -1.987
REMARK UNBOUND:                -1.971
REMARK  7 active torsions:
REMARK  status: ('A' for Active; 'I' for Inactive)
REMARK    1  A    between atoms: C_8  and  C_9 
REMARK    2  A    between atoms: C_14  and  N_15 
REMARK       I    between atoms: N_15  and  C_17 
REMARK    3  A    between atoms: C_17  and  C_19 
REMARK    4  A    between atoms: C_20  and  O_22 
REMARK    5  A    between atoms: C_26  and  C_30 
REMARK    6  A    between atoms: C_30  and  C_31 
REMARK    7  A    between atoms: C_31  and  C_32 
ROOT
HETATM    1  C   UNL     1       4.150   4.313  23.918  0.00  0.00     0.066 A 
HETATM    2  C   UNL     1       3.581   4.650  25.155  0.00  0.00     0.083 A 
HETATM    3  C   UNL     1       3.224   5.968  25.476  0.00  0.00     0.069 A 
HETATM    4  C   UNL     1       4.215   5.314  22.920  0.00  0.00     0.035 A 
HETATM    5  C   UNL     1       3.813   6.637  23.207  0.00  0.00     0.019 A 
HETATM    6  C   UNL     1       3.369   6.937  24.487  0.00  0.00     0.065 A 
HETATM    7  C   UNL     1       3.692   7.866  22.498  0.00  0.00     0.067 A 
HETATM    8  N   UNL     1       3.284   8.862  23.295  0.00  0.00    -0.178 NA
HETATM    9  N   UNL     1       3.099   8.274  24.480  0.00  0.00    -0.277 N 
HETATM   10  H   UNL     1       2.774   8.853  25.245  0.00  0.00     0.189 HD
ENDROOT
BRANCH   1  11
HETATM   11  C   UNL     1       4.617   2.945  23.493  0.00  0.00     0.260 C 
HETATM   12  N   UNL     1       4.405   2.418  22.205  0.00  0.00    -0.318 N 
HETATM   13  C   UNL     1       4.988   1.108  21.912  0.00  0.00     0.159 C 
HETATM   14  O   UNL     1       5.241   2.304  24.344  0.00  0.00    -0.267 OA
BRANCH  12  15
HETATM   15  C   UNL     1       3.595   2.984  21.193  0.00  0.00     0.037 C 
HETATM   16  C   UNL     1       2.212   3.009  21.312  0.00  0.00     0.030 C 
HETATM   17  C   UNL     1       1.459   3.840  20.482  0.00  0.00     0.010 C 
HETATM   18  C   UNL     1       2.084   4.721  19.581  0.00  0.00    -0.054 C 
HETATM   19  C   UNL     1       3.448   4.508  19.321  0.00  0.00     0.010 C 
HETATM   20  C   UNL     1       4.200   3.635  20.114  0.00  0.00     0.030 C 
BRANCH  18  21
HETATM   21  C   UNL     1       1.323   5.905  18.971  0.00  0.00     0.022 C 
HETATM   22  C   UNL     1      -0.102   5.554  18.483  0.00  0.00     0.037 C 
HETATM   23  C   UNL     1      -0.091   4.542  17.336  0.00  0.00     0.235 C 
HETATM   24  N   UNL     1       0.753   5.022  16.182  0.00  0.00    -0.075 N 
HETATM   25  C   UNL     1       2.113   5.532  16.586  0.00  0.00     0.235 C 
HETATM   26  C   UNL     1       0.031   5.932  15.232  0.00  0.00     0.269 C 
HETATM   27  H   UNL     1       0.932   4.166  15.640  0.00  0.00     0.279 HD
HETATM   28  C   UNL     1       2.030   6.522  17.736  0.00  0.00     0.037 C 
ENDBRANCH  18  21
ENDBRANCH  12  15
ENDBRANCH   1  11
BRANCH   2  29
HETATM   29  O   UNL     1       3.253   3.750  26.136  0.00  0.00    -0.360 OA
HETATM   30  H   UNL     1       2.359   3.413  25.932  0.00  0.00     0.217 HD
ENDBRANCH   2  29
BRANCH   7  31
HETATM   31  C   UNL     1       3.967   8.150  21.056  0.00  0.00     0.063 C 
BRANCH  31  32
HETATM   32  C   UNL     1       5.346   8.785  20.831  0.00  0.00     0.014 C 
BRANCH  32  33
HETATM   33  C   UNL     1       6.331   7.945  19.973  0.00  0.00    -0.051 C 
HETATM   34  C   UNL     1       7.010   6.857  20.819  0.00  0.00     0.014 C 
HETATM   35  C   UNL     1       5.528   7.262  18.850  0.00  0.00     0.014 C 
HETATM   36  C   UNL     1       7.407   8.835  19.330  0.00  0.00     0.014 C 
ENDBRANCH  32  33
ENDBRANCH  31  32
ENDBRANCH   7  31
TORSDOF 7
ENDMDL
