MODEL 1
REMARK VINA RESULT:    -7.408      0.000      0.000
REMARK INTER + INTRA:         -10.495
REMARK INTER:                  -9.271
REMARK INTRA:                  -1.225
REMARK UNBOUND:                -1.355
REMARK  5 active torsions:
REMARK  status: ('A' for Active; 'I' for Inactive)
REMARK    1  A    between atoms: O_1  and  C_2 
REMARK    2  A    between atoms: C_4  and  O_5 
REMARK    3  A    between atoms: C_6  and  C_11 
REMARK    4  A    between atoms: C_8  and  C_9 
REMARK    5  A    between atoms: C_17  and  C_18 
ROOT
HETATM    1  C   UNL     1       8.337  13.226  23.692  0.00  0.00     0.103 A 
HETATM    2  N   UNL     1       9.516  12.770  24.150  0.00  0.00    -0.173 NA
HETATM    3  N   UNL     1       9.746  13.456  25.261  0.00  0.00    -0.281 N 
HETATM    4  H   UNL     1      10.610  13.268  25.757  0.00  0.00     0.189 HD
HETATM    5  C   UNL     1       8.750  14.319  25.614  0.00  0.00     0.037 A 
HETATM    6  C   UNL     1       8.908  15.140  26.840  0.00  0.00     0.070 C 
HETATM    7  C   UNL     1       7.778  14.192  24.621  0.00  0.00     0.032 A 
ENDROOT
BRANCH   1   8
HETATM    8  C   UNL     1       7.774  12.595  22.483  0.00  0.00     0.029 A 
HETATM    9  C   UNL     1       8.472  12.537  21.262  0.00  0.00     0.081 A 
HETATM   10  C   UNL     1       7.981  11.789  20.188  0.00  0.00     0.074 A 
HETATM   11  C   UNL     1       6.779  11.093  20.321  0.00  0.00     0.074 A 
HETATM   12  C   UNL     1       6.039  11.150  21.506  0.00  0.00    -0.024 A 
HETATM   13  C   UNL     1       6.545  11.915  22.575  0.00  0.00     0.026 A 
BRANCH   9  14
HETATM   14  O   UNL     1       9.655  13.208  21.089  0.00  0.00    -0.360 OA
HETATM   15  H   UNL     1       9.563  13.828  20.352  0.00  0.00     0.217 HD
ENDBRANCH   9  14
BRANCH  11  16
HETATM   16  O   UNL     1       6.327  10.320  19.288  0.00  0.00    -0.360 OA
HETATM   17  H   UNL     1       7.043   9.734  18.996  0.00  0.00     0.217 HD
ENDBRANCH  11  16
BRANCH  12  18
HETATM   18  C   UNL     1       4.807  10.303  21.723  0.00  0.00     0.037 C 
HETATM   19  C   UNL     1       5.064   8.938  22.349  0.00  0.00     0.010 C 
ENDBRANCH  12  18
ENDBRANCH   1   8
BRANCH   7  20
HETATM   20  C   UNL     1       6.481  14.878  24.631  0.00  0.00     0.017 A 
HETATM   21  C   UNL     1       5.988  15.555  23.508  0.00  0.00     0.127 A 
HETATM   22  F   UNL     1       6.736  15.696  22.404  0.00  0.00    -0.205 F 
HETATM   23  C   UNL     1       4.696  16.091  23.484  0.00  0.00     0.043 A 
HETATM   24  C   UNL     1       3.880  16.003  24.608  0.00  0.00     0.003 A 
HETATM   25  C   UNL     1       4.360  15.376  25.753  0.00  0.00     0.001 A 
HETATM   26  C   UNL     1       5.638  14.802  25.755  0.00  0.00     0.015 A 
ENDBRANCH   7  20
TORSDOF 5
ENDMDL
MODEL 2
REMARK VINA RESULT:    -7.392      1.348      2.374
REMARK INTER + INTRA:         -10.475
REMARK INTER:                  -9.367
REMARK INTRA:                  -1.108
REMARK UNBOUND:                -1.355
REMARK  5 active torsions:
REMARK  status: ('A' for Active; 'I' for Inactive)
REMARK    1  A    between atoms: O_1  and  C_2 
REMARK    2  A    between atoms: C_4  and  O_5 
REMARK    3  A    between atoms: C_6  and  C_11 
REMARK    4  A    between atoms: C_8  and  C_9 
REMARK    5  A    between atoms: C_17  and  C_18 
ROOT
HETATM    1  C   UNL     1       8.591  12.995  24.237  0.00  0.00     0.103 A 
HETATM    2  N   UNL     1       9.663  12.550  24.916  0.00  0.00    -0.173 NA
HETATM    3  N   UNL     1       9.746  13.331  25.984  0.00  0.00    -0.281 N 
HETATM    4  H   UNL     1      10.514  13.165  26.626  0.00  0.00     0.189 HD
HETATM    5  C   UNL     1       8.745  14.250  26.097  0.00  0.00     0.037 A 
HETATM    6  C   UNL     1       8.746  15.179  27.255  0.00  0.00     0.070 C 
HETATM    7  C   UNL     1       7.935  14.059  24.977  0.00  0.00     0.032 A 
ENDROOT
BRANCH   1   8
HETATM    8  C   UNL     1       8.195  12.269  23.014  0.00  0.00     0.029 A 
HETATM    9  C   UNL     1       7.281  11.198  23.030  0.00  0.00     0.081 A 
HETATM   10  C   UNL     1       6.804  10.644  21.838  0.00  0.00     0.074 A 
HETATM   11  C   UNL     1       7.241  11.151  20.614  0.00  0.00     0.074 A 
HETATM   12  C   UNL     1       8.172  12.194  20.555  0.00  0.00    -0.024 A 
HETATM   13  C   UNL     1       8.648  12.734  21.766  0.00  0.00     0.026 A 
BRANCH   9  14
HETATM   14  O   UNL     1       6.829  10.669  24.211  0.00  0.00    -0.360 OA
HETATM   15  H   UNL     1       6.727   9.712  24.109  0.00  0.00     0.217 HD
ENDBRANCH   9  14
BRANCH  11  16
HETATM   16  O   UNL     1       6.733  10.643  19.451  0.00  0.00    -0.360 OA
HETATM   17  H   UNL     1       5.888  11.079  19.258  0.00  0.00     0.217 HD
ENDBRANCH  11  16
BRANCH  12  18
HETATM   18  C   UNL     1       8.560  12.849  19.251  0.00  0.00     0.037 C 
HETATM   19  C   UNL     1       8.320  14.352  19.188  0.00  0.00     0.010 C 
ENDBRANCH  12  18
ENDBRANCH   1   8
BRANCH   7  20
HETATM   20  C   UNL     1       6.683  14.779  24.720  0.00  0.00     0.017 A 
HETATM   21  C   UNL     1       6.411  15.381  23.484  0.00  0.00     0.127 A 
HETATM   22  F   UNL     1       7.336  15.415  22.514  0.00  0.00    -0.205 F 
HETATM   23  C   UNL     1       5.163  15.949  23.205  0.00  0.00     0.043 A 
HETATM   24  C   UNL     1       4.169  15.971  24.180  0.00  0.00     0.003 A 
HETATM   25  C   UNL     1       4.428  15.421  25.430  0.00  0.00     0.001 A 
HETATM   26  C   UNL     1       5.664  14.814  25.688  0.00  0.00     0.015 A 
ENDBRANCH   7  20
TORSDOF 5
ENDMDL
MODEL 3
REMARK VINA RESULT:    -7.237      1.019      1.426
REMARK INTER + INTRA:         -10.285
REMARK INTER:                  -9.138
REMARK INTRA:                  -1.147
REMARK UNBOUND:                -1.355
REMARK  5 active torsions:
REMARK  status: ('A' for Active; 'I' for Inactive)
REMARK    1  A    between atoms: O_1  and  C_2 
REMARK    2  A    between atoms: C_4  and  O_5 
REMARK    3  A    between atoms: C_6  and  C_11 
REMARK    4  A    between atoms: C_8  and  C_9 
REMARK    5  A    between atoms: C_17  and  C_18 
ROOT
HETATM    1  C   UNL     1       8.274  13.196  23.465  0.00  0.00     0.103 A 
HETATM    2  N   UNL     1       9.508  12.829  23.852  0.00  0.00    -0.173 NA
HETATM    3  N   UNL     1       9.745  13.522  24.957  0.00  0.00    -0.281 N 
HETATM    4  H   UNL     1      10.648  13.397  25.402  0.00  0.00     0.189 HD
HETATM    5  C   UNL     1       8.707  14.300  25.375  0.00  0.00     0.037 A 
HETATM    6  C   UNL     1       8.869  15.122  26.601  0.00  0.00     0.070 C 
HETATM    7  C   UNL     1       7.694  14.107  24.436  0.00  0.00     0.032 A 
ENDROOT
BRANCH   1   8
HETATM    8  C   UNL     1       7.694  12.533  22.280  0.00  0.00     0.029 A 
HETATM    9  C   UNL     1       8.374  12.449  21.050  0.00  0.00     0.081 A 
HETATM   10  C   UNL     1       7.869  11.672  20.002  0.00  0.00     0.074 A 
HETATM   11  C   UNL     1       6.673  10.974  20.171  0.00  0.00     0.074 A 
HETATM   12  C   UNL     1       5.952  11.056  21.366  0.00  0.00    -0.024 A 
HETATM   13  C   UNL     1       6.471  11.849  22.408  0.00  0.00     0.026 A 
BRANCH   9  14
HETATM   14  O   UNL     1       9.550  13.121  20.842  0.00  0.00    -0.360 OA
HETATM   15  H   UNL     1       9.353  14.038  20.603  0.00  0.00     0.217 HD
ENDBRANCH   9  14
BRANCH  11  16
HETATM   16  O   UNL     1       6.209  10.175  19.164  0.00  0.00    -0.360 OA
HETATM   17  H   UNL     1       5.266  10.356  19.025  0.00  0.00     0.217 HD
ENDBRANCH  11  16
BRANCH  12  18
HETATM   18  C   UNL     1       4.728  10.209  21.624  0.00  0.00     0.037 C 
HETATM   19  C   UNL     1       5.011   8.816  22.171  0.00  0.00     0.010 C 
ENDBRANCH  12  18
ENDBRANCH   1   8
BRANCH   7  20
HETATM   20  C   UNL     1       6.350  14.689  24.525  0.00  0.00     0.017 A 
HETATM   21  C   UNL     1       5.541  14.522  25.656  0.00  0.00     0.127 A 
HETATM   22  F   UNL     1       5.922  13.728  26.667  0.00  0.00    -0.205 F 
HETATM   23  C   UNL     1       4.318  15.190  25.788  0.00  0.00     0.043 A 
HETATM   24  C   UNL     1       3.852  16.007  24.761  0.00  0.00     0.003 A 
HETATM   25  C   UNL     1       4.614  16.155  23.608  0.00  0.00     0.001 A 
HETATM   26  C   UNL     1       5.858  15.520  23.502  0.00  0.00     0.015 A 
ENDBRANCH   7  20
TORSDOF 5
ENDMDL
MODEL 4
REMARK VINA RESULT:    -7.202      3.019      5.680
REMARK INTER + INTRA:         -10.241
REMARK INTER:                  -8.974
REMARK INTRA:                  -1.267
REMARK UNBOUND:                -1.355
REMARK  5 active torsions:
REMARK  status: ('A' for Active; 'I' for Inactive)
REMARK    1  A    between atoms: O_1  and  C_2 
REMARK    2  A    between atoms: C_4  and  O_5 
REMARK    3  A    between atoms: C_6  and  C_11 
REMARK    4  A    between atoms: C_8  and  C_9 
REMARK    5  A    between atoms: C_17  and  C_18 
ROOT
HETATM    1  C   UNL     1       6.787  14.483  22.483  0.00  0.00     0.103 A 
HETATM    2  N   UNL     1       7.368  15.595  22.000  0.00  0.00    -0.173 NA
HETATM    3  N   UNL     1       8.133  15.180  21.000  0.00  0.00    -0.281 N 
HETATM    4  H   UNL     1       8.678  15.879  20.506  0.00  0.00     0.189 HD
HETATM    5  C   UNL     1       8.055  13.844  20.739  0.00  0.00     0.037 A 
HETATM    6  C   UNL     1       8.875  13.274  19.641  0.00  0.00     0.070 C 
HETATM    7  C   UNL     1       7.159  13.333  21.679  0.00  0.00     0.032 A 
ENDROOT
BRANCH   1   8
HETATM    8  C   UNL     1       5.810  14.634  23.580  0.00  0.00     0.029 A 
HETATM    9  C   UNL     1       6.182  15.032  24.878  0.00  0.00     0.081 A 
HETATM   10  C   UNL     1       5.215  15.325  25.844  0.00  0.00     0.074 A 
HETATM   11  C   UNL     1       3.861  15.216  25.524  0.00  0.00     0.074 A 
HETATM   12  C   UNL     1       3.450  14.794  24.256  0.00  0.00    -0.024 A 
HETATM   13  C   UNL     1       4.438  14.495  23.298  0.00  0.00     0.026 A 
BRANCH   9  14
HETATM   14  O   UNL     1       7.501  15.149  25.232  0.00  0.00    -0.360 OA
HETATM   15  H   UNL     1       7.835  14.280  25.498  0.00  0.00     0.217 HD
ENDBRANCH   9  14
BRANCH  11  16
HETATM   16  O   UNL     1       2.918  15.553  26.455  0.00  0.00    -0.360 OA
HETATM   17  H   UNL     1       3.327  16.119  27.129  0.00  0.00     0.217 HD
ENDBRANCH  11  16
BRANCH  12  18
HETATM   18  C   UNL     1       1.997  14.795  23.843  0.00  0.00     0.037 C 
HETATM   19  C   UNL     1       1.444  13.440  23.422  0.00  0.00     0.010 C 
ENDBRANCH  12  18
ENDBRANCH   1   8
BRANCH   7  20
HETATM   20  C   UNL     1       6.705  11.939  21.726  0.00  0.00     0.017 A 
HETATM   21  C   UNL     1       7.545  10.896  22.137  0.00  0.00     0.127 A 
HETATM   22  F   UNL     1       8.840  11.117  22.403  0.00  0.00    -0.205 F 
HETATM   23  C   UNL     1       7.066   9.592  22.306  0.00  0.00     0.043 A 
HETATM   24  C   UNL     1       5.737   9.290  22.020  0.00  0.00     0.003 A 
HETATM   25  C   UNL     1       4.892  10.297  21.567  0.00  0.00     0.001 A 
HETATM   26  C   UNL     1       5.366  11.610  21.443  0.00  0.00     0.015 A 
ENDBRANCH   7  20
TORSDOF 5
ENDMDL
MODEL 5
REMARK VINA RESULT:    -7.125      5.381      6.670
REMARK INTER + INTRA:         -10.146
REMARK INTER:                  -9.021
REMARK INTRA:                  -1.126
REMARK UNBOUND:                -1.355
REMARK  5 active torsions:
REMARK  status: ('A' for Active; 'I' for Inactive)
REMARK    1  A    between atoms: O_1  and  C_2 
REMARK    2  A    between atoms: C_4  and  O_5 
REMARK    3  A    between atoms: C_6  and  C_11 
REMARK    4  A    between atoms: C_8  and  C_9 
REMARK    5  A    between atoms: C_17  and  C_18 
ROOT
HETATM    1  C   UNL     1       2.198  11.382  24.549  0.00  0.00     0.103 A 
HETATM    2  N   UNL     1       2.359  10.070  24.794  0.00  0.00    -0.173 NA
HETATM    3  N   UNL     1       3.659   9.914  25.005  0.00  0.00    -0.281 N 
HETATM    4  H   UNL     1       3.992   8.974  25.193  0.00  0.00     0.189 HD
HETATM    5  C   UNL     1       4.384  11.068  24.976  0.00  0.00     0.037 A 
HETATM    6  C   UNL     1       5.851  11.005  25.196  0.00  0.00     0.070 C 
HETATM    7  C   UNL     1       3.463  12.079  24.700  0.00  0.00     0.032 A 
ENDROOT
BRANCH   1   8
HETATM    8  C   UNL     1       0.826  11.883  24.339  0.00  0.00     0.029 A 
HETATM    9  C   UNL     1       0.418  12.497  23.139  0.00  0.00     0.081 A 
HETATM   10  C   UNL     1      -0.926  12.808  22.912  0.00  0.00     0.074 A 
HETATM   11  C   UNL     1      -1.879  12.514  23.887  0.00  0.00     0.074 A 
HETATM   12  C   UNL     1      -1.511  11.933  25.105  0.00  0.00    -0.024 A 
HETATM   13  C   UNL     1      -0.152  11.634  25.320  0.00  0.00     0.026 A 
BRANCH   9  14
HETATM   14  O   UNL     1       1.323  12.804  22.157  0.00  0.00    -0.360 OA
HETATM   15  H   UNL     1       0.956  13.502  21.595  0.00  0.00     0.217 HD
ENDBRANCH   9  14
BRANCH  11  16
HETATM   16  O   UNL     1      -3.199  12.771  23.642  0.00  0.00    -0.360 OA
HETATM   17  H   UNL     1      -3.701  11.944  23.714  0.00  0.00     0.217 HD
ENDBRANCH  11  16
BRANCH  12  18
HETATM   18  C   UNL     1      -2.535  11.484  26.121  0.00  0.00     0.037 C 
HETATM   19  C   UNL     1      -1.959  10.907  27.407  0.00  0.00     0.010 C 
ENDBRANCH  12  18
ENDBRANCH   1   8
BRANCH   7  20
HETATM   20  C   UNL     1       3.784  13.510  24.652  0.00  0.00     0.017 A 
HETATM   21  C   UNL     1       4.390  14.101  23.536  0.00  0.00     0.127 A 
HETATM   22  F   UNL     1       4.802  13.356  22.500  0.00  0.00    -0.205 F 
HETATM   23  C   UNL     1       4.571  15.485  23.447  0.00  0.00     0.043 A 
HETATM   24  C   UNL     1       4.191  16.311  24.501  0.00  0.00     0.003 A 
HETATM   25  C   UNL     1       3.629  15.747  25.641  0.00  0.00     0.001 A 
HETATM   26  C   UNL     1       3.409  14.365  25.705  0.00  0.00     0.015 A 
ENDBRANCH   7  20
TORSDOF 5
ENDMDL
MODEL 6
REMARK VINA RESULT:    -7.078      1.655      2.234
REMARK INTER + INTRA:         -10.089
REMARK INTER:                  -8.775
REMARK INTRA:                  -1.314
REMARK UNBOUND:                -1.355
REMARK  5 active torsions:
REMARK  status: ('A' for Active; 'I' for Inactive)
REMARK    1  A    between atoms: O_1  and  C_2 
REMARK    2  A    between atoms: C_4  and  O_5 
REMARK    3  A    between atoms: C_6  and  C_11 
REMARK    4  A    between atoms: C_8  and  C_9 
REMARK    5  A    between atoms: C_17  and  C_18 
ROOT
HETATM    1  C   UNL     1       7.648  12.814  22.771  0.00  0.00     0.103 A 
HETATM    2  N   UNL     1       8.949  12.494  22.659  0.00  0.00    -0.173 NA
HETATM    3  N   UNL     1       9.599  13.455  23.300  0.00  0.00    -0.281 N 
HETATM    4  H   UNL     1      10.612  13.404  23.316  0.00  0.00     0.189 HD
HETATM    5  C   UNL     1       8.799  14.385  23.896  0.00  0.00     0.037 A 
HETATM    6  C   UNL     1       9.426  15.508  24.638  0.00  0.00     0.070 C 
HETATM    7  C   UNL     1       7.492  13.998  23.598  0.00  0.00     0.032 A 
ENDROOT
BRANCH   1   8
HETATM    8  C   UNL     1       6.654  11.881  22.205  0.00  0.00     0.029 A 
HETATM    9  C   UNL     1       6.761  11.358  20.902  0.00  0.00     0.081 A 
HETATM   10  C   UNL     1       5.897  10.352  20.458  0.00  0.00     0.074 A 
HETATM   11  C   UNL     1       4.910   9.861  21.313  0.00  0.00     0.074 A 
HETATM   12  C   UNL     1       4.751  10.374  22.604  0.00  0.00    -0.024 A 
HETATM   13  C   UNL     1       5.625  11.393  23.031  0.00  0.00     0.026 A 
BRANCH   9  14
HETATM   14  O   UNL     1       7.715  11.816  20.031  0.00  0.00    -0.360 OA
HETATM   15  H   UNL     1       7.746  11.231  19.259  0.00  0.00     0.217 HD
ENDBRANCH   9  14
BRANCH  11  16
HETATM   16  O   UNL     1       4.101   8.841  20.895  0.00  0.00    -0.360 OA
HETATM   17  H   UNL     1       3.782   8.353  21.670  0.00  0.00     0.217 HD
ENDBRANCH  11  16
BRANCH  12  18
HETATM   18  C   UNL     1       3.781   9.771  23.592  0.00  0.00     0.037 C 
HETATM   19  C   UNL     1       3.877  10.322  25.009  0.00  0.00     0.010 C 
ENDBRANCH  12  18
ENDBRANCH   1   8
BRANCH   7  20
HETATM   20  C   UNL     1       6.288  14.666  24.104  0.00  0.00     0.017 A 
HETATM   21  C   UNL     1       5.931  14.633  25.458  0.00  0.00     0.127 A 
HETATM   22  F   UNL     1       6.624  13.892  26.336  0.00  0.00    -0.205 F 
HETATM   23  C   UNL     1       4.857  15.382  25.952  0.00  0.00     0.043 A 
HETATM   24  C   UNL     1       4.081  16.149  25.087  0.00  0.00     0.003 A 
HETATM   25  C   UNL     1       4.385  16.165  23.731  0.00  0.00     0.001 A 
HETATM   26  C   UNL     1       5.489  15.449  23.249  0.00  0.00     0.015 A 
ENDBRANCH   7  20
TORSDOF 5
ENDMDL
MODEL 7
REMARK VINA RESULT:    -6.943      7.741      9.542
REMARK INTER + INTRA:          -9.921
REMARK INTER:                  -8.715
REMARK INTRA:                  -1.206
REMARK UNBOUND:                -1.355
REMARK  5 active torsions:
REMARK  status: ('A' for Active; 'I' for Inactive)
REMARK    1  A    between atoms: O_1  and  C_2 
REMARK    2  A    between atoms: C_4  and  O_5 
REMARK    3  A    between atoms: C_6  and  C_11 
REMARK    4  A    between atoms: C_8  and  C_9 
REMARK    5  A    between atoms: C_17  and  C_18 
ROOT
HETATM    1  C   UNL     1      -1.698  11.371  24.430  0.00  0.00     0.103 A 
HETATM    2  N   UNL     1      -2.756  10.992  23.692  0.00  0.00    -0.173 NA
HETATM    3  N   UNL     1      -2.705  11.745  22.601  0.00  0.00    -0.281 N 
HETATM    4  H   UNL     1      -3.440  11.622  21.913  0.00  0.00     0.189 HD
HETATM    5  C   UNL     1      -1.627  12.577  22.534  0.00  0.00     0.037 A 
HETATM    6  C   UNL     1      -1.475  13.467  21.355  0.00  0.00     0.070 C 
HETATM    7  C   UNL     1      -0.911  12.355  23.710  0.00  0.00     0.032 A 
ENDROOT
BRANCH   1   8
HETATM    8  C   UNL     1      -1.445  10.653  25.695  0.00  0.00     0.029 A 
HETATM    9  C   UNL     1      -2.273  10.793  26.825  0.00  0.00     0.081 A 
HETATM   10  C   UNL     1      -2.102   9.976  27.947  0.00  0.00     0.074 A 
HETATM   11  C   UNL     1      -1.094   9.011  27.953  0.00  0.00     0.074 A 
HETATM   12  C   UNL     1      -0.231   8.861  26.864  0.00  0.00    -0.024 A 
HETATM   13  C   UNL     1      -0.413   9.698  25.746  0.00  0.00     0.026 A 
BRANCH   9  14
HETATM   14  O   UNL     1      -3.273  11.730  26.859  0.00  0.00    -0.360 OA
HETATM   15  H   UNL     1      -3.074  12.380  27.549  0.00  0.00     0.217 HD
ENDBRANCH   9  14
BRANCH  11  16
HETATM   16  O   UNL     1      -0.963   8.178  29.030  0.00  0.00    -0.360 OA
HETATM   17  H   UNL     1      -1.510   8.515  29.758  0.00  0.00     0.217 HD
ENDBRANCH  11  16
BRANCH  12  18
HETATM   18  C   UNL     1       0.779   7.740  26.790  0.00  0.00     0.037 C 
HETATM   19  C   UNL     1       0.253   6.433  26.210  0.00  0.00     0.010 C 
ENDBRANCH  12  18
ENDBRANCH   1   8
BRANCH   7  20
HETATM   20  C   UNL     1       0.377  12.981  24.034  0.00  0.00     0.017 A 
HETATM   21  C   UNL     1       0.615  13.600  25.268  0.00  0.00     0.127 A 
HETATM   22  F   UNL     1      -0.367  13.741  26.170  0.00  0.00    -0.205 F 
HETATM   23  C   UNL     1       1.884  14.075  25.617  0.00  0.00     0.043 A 
HETATM   24  C   UNL     1       2.939  13.983  24.714  0.00  0.00     0.003 A 
HETATM   25  C   UNL     1       2.720  13.415  23.464  0.00  0.00     0.001 A 
HETATM   26  C   UNL     1       1.459  12.900  23.138  0.00  0.00     0.015 A 
ENDBRANCH   7  20
TORSDOF 5
ENDMDL
MODEL 8
REMARK VINA RESULT:    -6.937      2.869      5.383
REMARK INTER + INTRA:          -9.914
REMARK INTER:                  -8.551
REMARK INTRA:                  -1.363
REMARK UNBOUND:                -1.355
REMARK  5 active torsions:
REMARK  status: ('A' for Active; 'I' for Inactive)
REMARK    1  A    between atoms: O_1  and  C_2 
REMARK    2  A    between atoms: C_4  and  O_5 
REMARK    3  A    between atoms: C_6  and  C_11 
REMARK    4  A    between atoms: C_8  and  C_9 
REMARK    5  A    between atoms: C_17  and  C_18 
ROOT
HETATM    1  C   UNL     1       6.253  11.718  23.545  0.00  0.00     0.103 A 
HETATM    2  N   UNL     1       6.418  10.909  24.606  0.00  0.00    -0.173 NA
HETATM    3  N   UNL     1       7.650  10.434  24.491  0.00  0.00    -0.281 N 
HETATM    4  H   UNL     1       7.967   9.780  25.198  0.00  0.00     0.189 HD
HETATM    5  C   UNL     1       8.355  10.929  23.433  0.00  0.00     0.037 A 
HETATM    6  C   UNL     1       9.746  10.459  23.210  0.00  0.00     0.070 C 
HETATM    7  C   UNL     1       7.485  11.803  22.782  0.00  0.00     0.032 A 
ENDROOT
BRANCH   1   8
HETATM    8  C   UNL     1       4.980  12.458  23.430  0.00  0.00     0.029 A 
HETATM    9  C   UNL     1       3.747  11.816  23.211  0.00  0.00     0.081 A 
HETATM   10  C   UNL     1       2.545  12.528  23.273  0.00  0.00     0.074 A 
HETATM   11  C   UNL     1       2.564  13.895  23.551  0.00  0.00     0.074 A 
HETATM   12  C   UNL     1       3.770  14.576  23.745  0.00  0.00    -0.024 A 
HETATM   13  C   UNL     1       4.971  13.845  23.670  0.00  0.00     0.026 A 
BRANCH   9  14
HETATM   14  O   UNL     1       3.685  10.475  22.933  0.00  0.00    -0.360 OA
HETATM   15  H   UNL     1       4.035   9.979  23.687  0.00  0.00     0.217 HD
ENDBRANCH   9  14
BRANCH  11  16
HETATM   16  O   UNL     1       1.385  14.578  23.664  0.00  0.00    -0.360 OA
HETATM   17  H   UNL     1       0.660  14.010  23.359  0.00  0.00     0.217 HD
ENDBRANCH  11  16
BRANCH  12  18
HETATM   18  C   UNL     1       3.812  16.023  24.178  0.00  0.00     0.037 C 
HETATM   19  C   UNL     1       3.697  16.252  25.679  0.00  0.00     0.010 C 
ENDBRANCH  12  18
ENDBRANCH   1   8
BRANCH   7  20
HETATM   20  C   UNL     1       7.845  12.631  21.625  0.00  0.00     0.017 A 
HETATM   21  C   UNL     1       8.155  13.991  21.750  0.00  0.00     0.127 A 
HETATM   22  F   UNL     1       8.029  14.622  22.927  0.00  0.00    -0.205 F 
HETATM   23  C   UNL     1       8.625  14.739  20.665  0.00  0.00     0.043 A 
HETATM   24  C   UNL     1       8.752  14.149  19.410  0.00  0.00     0.003 A 
HETATM   25  C   UNL     1       8.408  12.812  19.247  0.00  0.00     0.001 A 
HETATM   26  C   UNL     1       7.981  12.057  20.347  0.00  0.00     0.015 A 
ENDBRANCH   7  20
TORSDOF 5
ENDMDL
MODEL 9
REMARK VINA RESULT:    -6.759      4.124      5.808
REMARK INTER + INTRA:          -9.695
REMARK INTER:                  -8.339
REMARK INTRA:                  -1.355
REMARK UNBOUND:                -1.355
REMARK  5 active torsions:
REMARK  status: ('A' for Active; 'I' for Inactive)
REMARK    1  A    between atoms: O_1  and  C_2 
REMARK    2  A    between atoms: C_4  and  O_5 
REMARK    3  A    between atoms: C_6  and  C_11 
REMARK    4  A    between atoms: C_8  and  C_9 
REMARK    5  A    between atoms: C_17  and  C_18 
ROOT
HETATM    1  C   UNL     1       2.539  11.256  24.621  0.00  0.00     0.103 A 
HETATM    2  N   UNL     1       1.567  10.344  24.441  0.00  0.00    -0.173 NA
HETATM    3  N   UNL     1       0.435  11.032  24.483  0.00  0.00    -0.281 N 
HETATM    4  H   UNL     1      -0.431  10.513  24.382  0.00  0.00     0.189 HD
HETATM    5  C   UNL     1       0.591  12.379  24.624  0.00  0.00     0.037 A 
HETATM    6  C   UNL     1      -0.615  13.242  24.687  0.00  0.00     0.070 C 
HETATM    7  C   UNL     1       1.968  12.588  24.698  0.00  0.00     0.032 A 
ENDROOT
BRANCH   1   8
HETATM    8  C   UNL     1       3.940  10.796  24.556  0.00  0.00     0.029 A 
HETATM    9  C   UNL     1       4.361   9.764  23.696  0.00  0.00     0.081 A 
HETATM   10  C   UNL     1       5.718   9.467  23.539  0.00  0.00     0.074 A 
HETATM   11  C   UNL     1       6.673  10.198  24.247  0.00  0.00     0.074 A 
HETATM   12  C   UNL     1       6.295  11.211  25.135  0.00  0.00    -0.024 A 
HETATM   13  C   UNL     1       4.923  11.490  25.286  0.00  0.00     0.026 A 
BRANCH   9  14
HETATM   14  O   UNL     1       3.454   9.021  22.984  0.00  0.00    -0.360 OA
HETATM   15  H   UNL     1       3.521   9.254  22.047  0.00  0.00     0.217 HD
ENDBRANCH   9  14
BRANCH  11  16
HETATM   16  O   UNL     1       8.001   9.942  24.052  0.00  0.00    -0.360 OA
HETATM   17  H   UNL     1       8.113   9.478  23.206  0.00  0.00     0.217 HD
ENDBRANCH  11  16
BRANCH  12  18
HETATM   18  C   UNL     1       7.309  12.103  25.811  0.00  0.00     0.037 C 
HETATM   19  C   UNL     1       6.724  13.293  26.559  0.00  0.00     0.010 C 
ENDBRANCH  12  18
ENDBRANCH   1   8
BRANCH   7  20
HETATM   20  C   UNL     1       2.608  13.906  24.774  0.00  0.00     0.017 A 
HETATM   21  C   UNL     1       2.591  14.677  25.944  0.00  0.00     0.127 A 
HETATM   22  F   UNL     1       1.891  14.284  27.018  0.00  0.00    -0.205 F 
HETATM   23  C   UNL     1       3.316  15.869  26.048  0.00  0.00     0.043 A 
HETATM   24  C   UNL     1       4.041  16.346  24.959  0.00  0.00     0.003 A 
HETATM   25  C   UNL     1       4.038  15.625  23.770  0.00  0.00     0.001 A 
HETATM   26  C   UNL     1       3.348  14.409  23.687  0.00  0.00     0.015 A 
ENDBRANCH   7  20
TORSDOF 5
ENDMDL
