REMARK  5 active torsions:
REMARK  status: ('A' for Active; 'I' for Inactive)
REMARK    1  A    between atoms: O_1  and  C_2 
REMARK    2  A    between atoms: C_4  and  O_5 
REMARK    3  A    between atoms: C_6  and  C_11 
REMARK    4  A    between atoms: C_8  and  C_9 
REMARK    5  A    between atoms: C_17  and  C_18 
ROOT
HETATM    1  C   UNL     1       6.710   0.036  -0.397  0.00  0.00     0.103 A 
HETATM    2  N   UNL     1       7.495   1.125  -0.470  0.00  0.00    -0.173 NA
HETATM    3  N   UNL     1       8.695   0.666  -0.797  0.00  0.00    -0.281 N 
HETATM    4  H   UNL     1       9.446   1.342  -0.886  0.00  0.00     0.189 HD
HETATM    5  C   UNL     1       8.752  -0.680  -1.009  0.00  0.00     0.037 A 
HETATM    6  C   UNL     1      10.051  -1.298  -1.376  0.00  0.00     0.070 C 
HETATM    7  C   UNL     1       7.458  -1.148  -0.780  0.00  0.00     0.032 A 
ENDROOT
BRANCH   1   8
HETATM    8  C   UNL     1       5.275   0.235  -0.112  0.00  0.00     0.029 A 
HETATM    9  C   UNL     1       4.814   1.141   0.862  0.00  0.00     0.081 A 
HETATM   10  C   UNL     1       3.451   1.426   0.990  0.00  0.00     0.074 A 
HETATM   11  C   UNL     1       2.531   0.802   0.147  0.00  0.00     0.074 A 
HETATM   12  C   UNL     1       2.945  -0.127  -0.813  0.00  0.00    -0.024 A 
HETATM   13  C   UNL     1       4.321  -0.408  -0.922  0.00  0.00     0.026 A 
BRANCH   9  14
HETATM   14  O   UNL     1       5.685   1.773   1.711  0.00  0.00    -0.360 OA
HETATM   15  H   UNL     1       5.267   2.577   2.052  0.00  0.00     0.217 HD
ENDBRANCH   9  14
BRANCH  11  16
HETATM   16  O   UNL     1       1.205   1.122   0.239  0.00  0.00    -0.360 OA
HETATM   17  H   UNL     1       1.093   1.814   0.910  0.00  0.00     0.217 HD
ENDBRANCH  11  16
BRANCH  12  18
HETATM   18  C   UNL     1       1.989  -0.715  -1.824  0.00  0.00     0.037 C 
HETATM   19  C   UNL     1       1.952  -2.237  -1.868  0.00  0.00     0.010 C 
ENDBRANCH  12  18
ENDBRANCH   1   8
BRANCH   7  20
HETATM   20  C   UNL     1       7.028  -2.538  -0.970  0.00  0.00     0.017 A 
HETATM   21  C   UNL     1       6.109  -3.157  -0.113  0.00  0.00     0.127 A 
HETATM   22  F   UNL     1       5.663  -2.533   0.987  0.00  0.00    -0.205 F 
HETATM   23  C   UNL     1       5.605  -4.435  -0.378  0.00  0.00     0.043 A 
HETATM   24  C   UNL     1       6.049  -5.147  -1.489  0.00  0.00     0.003 A 
HETATM   25  C   UNL     1       6.995  -4.575  -2.332  0.00  0.00     0.001 A 
HETATM   26  C   UNL     1       7.462  -3.277  -2.086  0.00  0.00     0.015 A 
ENDBRANCH   7  20
TORSDOF 5
