MODEL 1
REMARK VINA RESULT:    -7.937      0.000      0.000
REMARK INTER + INTRA:         -12.339
REMARK INTER:                  -9.816
REMARK INTRA:                  -2.523
REMARK UNBOUND:                -1.617
REMARK  7 active torsions:
REMARK  status: ('A' for Active; 'I' for Inactive)
REMARK    1  A    between atoms: C_2  and  N_4 
REMARK    2  A    between atoms: N_4  and  S_6 
REMARK    3  A    between atoms: S_6  and  C_9 
REMARK    4  A    between atoms: C_11  and  C_12 
REMARK    5  A    between atoms: N_17  and  C_18 
REMARK    6  A    between atoms: C_25  and  O_26 
REMARK    7  A    between atoms: C_28  and  O_29 
ROOT
HETATM    1  C   UNL     1      -1.352  14.398  22.695  0.00  0.00     0.108 C 
HETATM    2  C   UNL     1      -1.146  14.226  24.079  0.00  0.00     0.041 C 
HETATM    3  C   UNL     1      -2.181  13.807  24.929  0.00  0.00     0.023 C 
HETATM    4  C   UNL     1      -3.469  13.756  24.384  0.00  0.00     0.078 C 
HETATM    5  C   UNL     1      -3.704  14.049  23.037  0.00  0.00     0.075 C 
HETATM    6  C   UNL     1      -2.640  14.329  22.180  0.00  0.00     0.091 C 
ENDROOT
BRANCH   3   7
HETATM    7  C   UNL     1      -1.841  13.216  26.289  0.00  0.00     0.277 C 
HETATM    8  N   UNL     1      -2.841  13.681  27.283  0.00  0.00    -0.156 NA
HETATM    9  N   UNL     1      -3.257  12.711  27.966  0.00  0.00    -0.093 NA
HETATM   10  C   UNL     1      -2.646  11.545  27.546  0.00  0.00     0.369 C 
HETATM   11  O   UNL     1      -2.754  10.478  28.131  0.00  0.00    -0.243 OA
HETATM   12  N   UNL     1      -1.877  11.798  26.420  0.00  0.00    -0.264 N 
BRANCH  12  13
HETATM   13  C   UNL     1      -1.055  10.867  25.738  0.00  0.00     0.080 A 
HETATM   14  C   UNL     1       0.192  10.502  26.261  0.00  0.00     0.033 A 
HETATM   15  C   UNL     1       1.024   9.588  25.599  0.00  0.00     0.002 A 
HETATM   16  C   UNL     1       0.616   9.020  24.399  0.00  0.00     0.003 A 
HETATM   17  C   UNL     1      -0.626   9.357  23.865  0.00  0.00     0.044 A 
HETATM   18  C   UNL     1      -1.446  10.268  24.530  0.00  0.00     0.143 A 
HETATM   19  F   UNL     1      -2.605  10.603  23.939  0.00  0.00    -0.204 F 
ENDBRANCH  12  13
ENDBRANCH   3   7
BRANCH   4  20
HETATM   20  O   UNL     1      -4.569  13.371  25.095  0.00  0.00    -0.360 OA
HETATM   21  H   UNL     1      -4.309  12.836  25.864  0.00  0.00     0.217 HD
ENDBRANCH   4  20
BRANCH   1  22
HETATM   22  S   UNL     1       0.099  14.573  21.668  0.00  0.00     0.246 S 
HETATM   23  O   UNL     1      -0.131  15.719  20.811  0.00  0.00    -0.206 OA
HETATM   24  O   UNL     1       0.429  13.302  21.063  0.00  0.00    -0.206 OA
BRANCH  22  25
HETATM   25  N   UNL     1       1.335  14.991  22.822  0.00  0.00    -0.207 NA
HETATM   26  C   UNL     1       1.820  16.390  22.640  0.00  0.00     0.130 C 
BRANCH  25  27
HETATM   27  C   UNL     1       2.454  14.001  23.077  0.00  0.00     0.065 C 
HETATM   28  C   UNL     1       3.821  14.584  22.684  0.00  0.00     0.027 C 
HETATM   29  C   UNL     1       2.586  13.591  24.547  0.00  0.00     0.027 C 
ENDBRANCH  25  27
ENDBRANCH  22  25
ENDBRANCH   1  22
BRANCH   6  30
HETATM   30  O   UNL     1      -2.887  14.466  20.848  0.00  0.00    -0.359 OA
HETATM   31  H   UNL     1      -3.420  13.718  20.528  0.00  0.00     0.217 HD
ENDBRANCH   6  30
TORSDOF 7
ENDMDL
MODEL 2
REMARK VINA RESULT:    -7.743      2.345      6.263
REMARK INTER + INTRA:         -12.076
REMARK INTER:                 -10.260
REMARK INTRA:                  -1.815
REMARK UNBOUND:                -1.617
REMARK  7 active torsions:
REMARK  status: ('A' for Active; 'I' for Inactive)
REMARK    1  A    between atoms: C_2  and  N_4 
REMARK    2  A    between atoms: N_4  and  S_6 
REMARK    3  A    between atoms: S_6  and  C_9 
REMARK    4  A    between atoms: C_11  and  C_12 
REMARK    5  A    between atoms: N_17  and  C_18 
REMARK    6  A    between atoms: C_25  and  O_26 
REMARK    7  A    between atoms: C_28  and  O_29 
ROOT
HETATM    1  C   UNL     1      -2.575  13.529  25.447  0.00  0.00     0.108 C 
HETATM    2  C   UNL     1      -1.906  14.026  24.310  0.00  0.00     0.041 C 
HETATM    3  C   UNL     1      -0.749  14.811  24.424  0.00  0.00     0.023 C 
HETATM    4  C   UNL     1      -0.399  15.245  25.708  0.00  0.00     0.078 C 
HETATM    5  C   UNL     1      -1.134  14.860  26.834  0.00  0.00     0.075 C 
HETATM    6  C   UNL     1      -2.198  13.967  26.710  0.00  0.00     0.091 C 
ENDROOT
BRANCH   3   7
HETATM    7  C   UNL     1       0.178  14.957  23.227  0.00  0.00     0.277 C 
HETATM    8  N   UNL     1       1.470  14.290  23.530  0.00  0.00    -0.156 NA
HETATM    9  N   UNL     1       1.814  13.554  22.571  0.00  0.00    -0.093 NA
HETATM   10  C   UNL     1       0.864  13.613  21.570  0.00  0.00     0.369 C 
HETATM   11  O   UNL     1       1.014  13.113  20.466  0.00  0.00    -0.243 OA
HETATM   12  N   UNL     1      -0.226  14.353  22.001  0.00  0.00    -0.264 N 
BRANCH  12  13
HETATM   13  C   UNL     1      -1.372  14.685  21.236  0.00  0.00     0.080 A 
HETATM   14  C   UNL     1      -1.603  16.008  20.839  0.00  0.00     0.033 A 
HETATM   15  C   UNL     1      -2.734  16.359  20.087  0.00  0.00     0.002 A 
HETATM   16  C   UNL     1      -3.652  15.385  19.717  0.00  0.00     0.003 A 
HETATM   17  C   UNL     1      -3.437  14.060  20.089  0.00  0.00     0.044 A 
HETATM   18  C   UNL     1      -2.311  13.721  20.838  0.00  0.00     0.143 A 
HETATM   19  F   UNL     1      -2.186  12.439  21.221  0.00  0.00    -0.204 F 
ENDBRANCH  12  13
ENDBRANCH   3   7
BRANCH   4  20
HETATM   20  O   UNL     1       0.697  16.018  25.966  0.00  0.00    -0.360 OA
HETATM   21  H   UNL     1       0.629  16.871  25.506  0.00  0.00     0.217 HD
ENDBRANCH   4  20
BRANCH   1  22
HETATM   22  S   UNL     1      -3.800  12.256  25.184  0.00  0.00     0.246 S 
HETATM   23  O   UNL     1      -4.029  12.185  23.755  0.00  0.00    -0.206 OA
HETATM   24  O   UNL     1      -4.928  12.471  26.063  0.00  0.00    -0.206 OA
BRANCH  22  25
HETATM   25  N   UNL     1      -2.961  10.811  25.677  0.00  0.00    -0.207 NA
HETATM   26  C   UNL     1      -3.319  10.403  27.067  0.00  0.00     0.130 C 
BRANCH  25  27
HETATM   27  C   UNL     1      -1.478  10.698  25.385  0.00  0.00     0.065 C 
HETATM   28  C   UNL     1      -0.771   9.797  26.410  0.00  0.00     0.027 C 
HETATM   29  C   UNL     1      -1.169  10.088  24.014  0.00  0.00     0.027 C 
ENDBRANCH  25  27
ENDBRANCH  22  25
ENDBRANCH   1  22
BRANCH   6  30
HETATM   30  O   UNL     1      -2.798  13.499  27.839  0.00  0.00    -0.359 OA
HETATM   31  H   UNL     1      -2.659  14.120  28.575  0.00  0.00     0.217 HD
ENDBRANCH   6  30
TORSDOF 7
ENDMDL
MODEL 3
REMARK VINA RESULT:    -7.720      2.482      6.642
REMARK INTER + INTRA:         -12.045
REMARK INTER:                  -9.602
REMARK INTRA:                  -2.444
REMARK UNBOUND:                -1.617
REMARK  7 active torsions:
REMARK  status: ('A' for Active; 'I' for Inactive)
REMARK    1  A    between atoms: C_2  and  N_4 
REMARK    2  A    between atoms: N_4  and  S_6 
REMARK    3  A    between atoms: S_6  and  C_9 
REMARK    4  A    between atoms: C_11  and  C_12 
REMARK    5  A    between atoms: N_17  and  C_18 
REMARK    6  A    between atoms: C_25  and  O_26 
REMARK    7  A    between atoms: C_28  and  O_29 
ROOT
HETATM    1  C   UNL     1      -1.184  12.961  25.739  0.00  0.00     0.108 C 
HETATM    2  C   UNL     1      -0.758  14.193  25.204  0.00  0.00     0.041 C 
HETATM    3  C   UNL     1       0.142  14.255  24.130  0.00  0.00     0.023 C 
HETATM    4  C   UNL     1       0.750  13.055  23.741  0.00  0.00     0.078 C 
HETATM    5  C   UNL     1       0.427  11.841  24.354  0.00  0.00     0.075 C 
HETATM    6  C   UNL     1      -0.572  11.785  25.326  0.00  0.00     0.091 C 
ENDROOT
BRANCH   3   7
HETATM    7  C   UNL     1       0.239  15.529  23.306  0.00  0.00     0.277 C 
HETATM    8  N   UNL     1       1.649  15.998  23.300  0.00  0.00    -0.156 NA
HETATM    9  N   UNL     1       2.007  16.280  22.129  0.00  0.00    -0.093 NA
HETATM   10  C   UNL     1       0.967  16.045  21.250  0.00  0.00     0.369 C 
HETATM   11  O   UNL     1       0.992  16.371  20.073  0.00  0.00    -0.243 OA
HETATM   12  N   UNL     1      -0.088  15.446  21.921  0.00  0.00    -0.264 N 
BRANCH  12  13
HETATM   13  C   UNL     1      -1.350  15.110  21.371  0.00  0.00     0.080 A 
HETATM   14  C   UNL     1      -2.330  16.093  21.186  0.00  0.00     0.033 A 
HETATM   15  C   UNL     1      -3.588  15.779  20.650  0.00  0.00     0.002 A 
HETATM   16  C   UNL     1      -3.882  14.472  20.288  0.00  0.00     0.003 A 
HETATM   17  C   UNL     1      -2.920  13.479  20.450  0.00  0.00     0.044 A 
HETATM   18  C   UNL     1      -1.673  13.799  20.986  0.00  0.00     0.143 A 
HETATM   19  F   UNL     1      -0.804  12.791  21.177  0.00  0.00    -0.204 F 
ENDBRANCH  12  13
ENDBRANCH   3   7
BRANCH   4  20
HETATM   20  O   UNL     1       1.649  12.968  22.716  0.00  0.00    -0.360 OA
HETATM   21  H   UNL     1       1.443  12.208  22.145  0.00  0.00     0.217 HD
ENDBRANCH   4  20
BRANCH   1  22
HETATM   22  S   UNL     1      -2.590  12.990  26.841  0.00  0.00     0.246 S 
HETATM   23  O   UNL     1      -2.652  14.324  27.405  0.00  0.00    -0.206 OA
HETATM   24  O   UNL     1      -2.537  11.855  27.735  0.00  0.00    -0.206 OA
BRANCH  22  25
HETATM   25  N   UNL     1      -3.935  12.794  25.750  0.00  0.00    -0.207 NA
HETATM   26  C   UNL     1      -4.669  11.518  25.992  0.00  0.00     0.130 C 
BRANCH  25  27
HETATM   27  C   UNL     1      -3.724  13.091  24.279  0.00  0.00     0.065 C 
HETATM   28  C   UNL     1      -4.208  11.930  23.396  0.00  0.00     0.027 C 
HETATM   29  C   UNL     1      -4.483  14.328  23.790  0.00  0.00     0.027 C 
ENDBRANCH  25  27
ENDBRANCH  22  25
ENDBRANCH   1  22
BRANCH   6  30
HETATM   30  O   UNL     1      -0.963  10.569  25.797  0.00  0.00    -0.359 OA
HETATM   31  H   UNL     1      -0.346  10.261  26.483  0.00  0.00     0.217 HD
ENDBRANCH   6  30
TORSDOF 7
ENDMDL
MODEL 4
REMARK VINA RESULT:    -7.648      2.790      5.949
REMARK INTER + INTRA:         -11.949
REMARK INTER:                  -9.621
REMARK INTRA:                  -2.328
REMARK UNBOUND:                -1.617
REMARK  7 active torsions:
REMARK  status: ('A' for Active; 'I' for Inactive)
REMARK    1  A    between atoms: C_2  and  N_4 
REMARK    2  A    between atoms: N_4  and  S_6 
REMARK    3  A    between atoms: S_6  and  C_9 
REMARK    4  A    between atoms: C_11  and  C_12 
REMARK    5  A    between atoms: N_17  and  C_18 
REMARK    6  A    between atoms: C_25  and  O_26 
REMARK    7  A    between atoms: C_28  and  O_29 
ROOT
HETATM    1  C   UNL     1      -1.786  10.077  26.345  0.00  0.00     0.108 C 
HETATM    2  C   UNL     1      -1.976  10.415  24.990  0.00  0.00     0.041 C 
HETATM    3  C   UNL     1      -2.783  11.497  24.609  0.00  0.00     0.023 C 
HETATM    4  C   UNL     1      -3.547  12.104  25.614  0.00  0.00     0.078 C 
HETATM    5  C   UNL     1      -3.461  11.690  26.947  0.00  0.00     0.075 C 
HETATM    6  C   UNL     1      -2.548  10.704  27.322  0.00  0.00     0.091 C 
ENDROOT
BRANCH   3   7
HETATM    7  C   UNL     1      -2.623  12.100  23.222  0.00  0.00     0.277 C 
HETATM    8  N   UNL     1      -3.963  12.239  22.597  0.00  0.00    -0.156 NA
HETATM    9  N   UNL     1      -4.093  13.387  22.100  0.00  0.00    -0.093 NA
HETATM   10  C   UNL     1      -2.947  14.126  22.320  0.00  0.00     0.369 C 
HETATM   11  O   UNL     1      -2.743  15.221  21.818  0.00  0.00    -0.243 OA
HETATM   12  N   UNL     1      -2.078  13.413  23.133  0.00  0.00    -0.264 N 
BRANCH  12  13
HETATM   13  C   UNL     1      -0.778  13.815  23.528  0.00  0.00     0.080 A 
HETATM   14  C   UNL     1       0.353  13.297  22.885  0.00  0.00     0.033 A 
HETATM   15  C   UNL     1       1.649  13.676  23.265  0.00  0.00     0.002 A 
HETATM   16  C   UNL     1       1.831  14.586  24.297  0.00  0.00     0.003 A 
HETATM   17  C   UNL     1       0.722  15.126  24.944  0.00  0.00     0.044 A 
HETATM   18  C   UNL     1      -0.562  14.741  24.561  0.00  0.00     0.143 A 
HETATM   19  F   UNL     1      -1.594  15.247  25.259  0.00  0.00    -0.204 F 
ENDBRANCH  12  13
ENDBRANCH   3   7
BRANCH   4  20
HETATM   20  O   UNL     1      -4.379  13.162  25.387  0.00  0.00    -0.360 OA
HETATM   21  H   UNL     1      -4.931  13.000  24.603  0.00  0.00     0.217 HD
ENDBRANCH   4  20
BRANCH   1  22
HETATM   22  S   UNL     1      -0.468   8.932  26.725  0.00  0.00     0.246 S 
HETATM   23  O   UNL     1      -1.043   7.891  27.553  0.00  0.00    -0.206 OA
HETATM   24  O   UNL     1       0.685   9.655  27.213  0.00  0.00    -0.206 OA
BRANCH  22  25
HETATM   25  N   UNL     1      -0.094   8.249  25.167  0.00  0.00    -0.207 NA
HETATM   26  C   UNL     1      -0.301   6.772  25.139  0.00  0.00     0.130 C 
BRANCH  25  27
HETATM   27  C   UNL     1       1.179   8.686  24.470  0.00  0.00     0.065 C 
HETATM   28  C   UNL     1       1.886   7.499  23.795  0.00  0.00     0.027 C 
HETATM   29  C   UNL     1       0.948   9.716  23.361  0.00  0.00     0.027 C 
ENDBRANCH  25  27
ENDBRANCH  22  25
ENDBRANCH   1  22
BRANCH   6  30
HETATM   30  O   UNL     1      -2.385  10.428  28.645  0.00  0.00    -0.359 OA
HETATM   31  H   UNL     1      -2.414   9.467  28.793  0.00  0.00     0.217 HD
ENDBRANCH   6  30
TORSDOF 7
ENDMDL
MODEL 5
REMARK VINA RESULT:    -7.571      3.003      6.343
REMARK INTER + INTRA:         -11.844
REMARK INTER:                  -9.836
REMARK INTRA:                  -2.008
REMARK UNBOUND:                -1.617
REMARK  7 active torsions:
REMARK  status: ('A' for Active; 'I' for Inactive)
REMARK    1  A    between atoms: C_2  and  N_4 
REMARK    2  A    between atoms: N_4  and  S_6 
REMARK    3  A    between atoms: S_6  and  C_9 
REMARK    4  A    between atoms: C_11  and  C_12 
REMARK    5  A    between atoms: N_17  and  C_18 
REMARK    6  A    between atoms: C_25  and  O_26 
REMARK    7  A    between atoms: C_28  and  O_29 
ROOT
HETATM    1  C   UNL     1      -1.454  10.103  26.548  0.00  0.00     0.108 C 
HETATM    2  C   UNL     1      -1.646  10.372  25.177  0.00  0.00     0.041 C 
HETATM    3  C   UNL     1      -2.600  11.302  24.737  0.00  0.00     0.023 C 
HETATM    4  C   UNL     1      -3.487  11.804  25.697  0.00  0.00     0.078 C 
HETATM    5  C   UNL     1      -3.386  11.443  27.044  0.00  0.00     0.075 C 
HETATM    6  C   UNL     1      -2.343  10.626  27.479  0.00  0.00     0.091 C 
ENDROOT
BRANCH   3   7
HETATM    7  C   UNL     1      -2.486  11.888  23.338  0.00  0.00     0.277 C 
HETATM    8  N   UNL     1      -3.838  11.944  22.725  0.00  0.00    -0.156 NA
HETATM    9  N   UNL     1      -4.034  13.074  22.210  0.00  0.00    -0.093 NA
HETATM   10  C   UNL     1      -2.926  13.877  22.404  0.00  0.00     0.369 C 
HETATM   11  O   UNL     1      -2.786  14.972  21.882  0.00  0.00    -0.243 OA
HETATM   12  N   UNL     1      -2.013  13.227  23.220  0.00  0.00    -0.264 N 
BRANCH  12  13
HETATM   13  C   UNL     1      -0.732  13.704  23.594  0.00  0.00     0.080 A 
HETATM   14  C   UNL     1       0.422  13.205  22.976  0.00  0.00     0.033 A 
HETATM   15  C   UNL     1       1.699  13.659  23.336  0.00  0.00     0.002 A 
HETATM   16  C   UNL     1       1.840  14.626  24.323  0.00  0.00     0.003 A 
HETATM   17  C   UNL     1       0.707  15.147  24.943  0.00  0.00     0.044 A 
HETATM   18  C   UNL     1      -0.559  14.688  24.580  0.00  0.00     0.143 A 
HETATM   19  F   UNL     1      -1.612  15.181  25.253  0.00  0.00    -0.204 F 
ENDBRANCH  12  13
ENDBRANCH   3   7
BRANCH   4  20
HETATM   20  O   UNL     1      -4.467  12.710  25.410  0.00  0.00    -0.360 OA
HETATM   21  H   UNL     1      -5.301  12.256  25.200  0.00  0.00     0.217 HD
ENDBRANCH   4  20
BRANCH   1  22
HETATM   22  S   UNL     1       0.013   9.194  27.006  0.00  0.00     0.246 S 
HETATM   23  O   UNL     1       0.138   9.298  28.446  0.00  0.00    -0.206 OA
HETATM   24  O   UNL     1       1.124   9.605  26.177  0.00  0.00    -0.206 OA
BRANCH  22  25
HETATM   25  N   UNL     1      -0.416   7.552  26.611  0.00  0.00    -0.207 NA
HETATM   26  C   UNL     1      -0.897   6.797  27.804  0.00  0.00     0.130 C 
BRANCH  25  27
HETATM   27  C   UNL     1       0.524   6.748  25.736  0.00  0.00     0.065 C 
HETATM   28  C   UNL     1       0.418   5.243  26.031  0.00  0.00     0.027 C 
HETATM   29  C   UNL     1       0.244   6.896  24.237  0.00  0.00     0.027 C 
ENDBRANCH  25  27
ENDBRANCH  22  25
ENDBRANCH   1  22
BRANCH   6  30
HETATM   30  O   UNL     1      -2.188  10.412  28.815  0.00  0.00    -0.359 OA
HETATM   31  H   UNL     1      -1.269  10.156  29.009  0.00  0.00     0.217 HD
ENDBRANCH   6  30
TORSDOF 7
ENDMDL
MODEL 6
REMARK VINA RESULT:    -7.509      3.464      6.596
REMARK INTER + INTRA:         -11.760
REMARK INTER:                  -9.333
REMARK INTRA:                  -2.427
REMARK UNBOUND:                -1.617
REMARK  7 active torsions:
REMARK  status: ('A' for Active; 'I' for Inactive)
REMARK    1  A    between atoms: C_2  and  N_4 
REMARK    2  A    between atoms: N_4  and  S_6 
REMARK    3  A    between atoms: S_6  and  C_9 
REMARK    4  A    between atoms: C_11  and  C_12 
REMARK    5  A    between atoms: N_17  and  C_18 
REMARK    6  A    between atoms: C_25  and  O_26 
REMARK    7  A    between atoms: C_28  and  O_29 
ROOT
HETATM    1  C   UNL     1       0.436   9.226  25.095  0.00  0.00     0.108 C 
HETATM    2  C   UNL     1      -0.005   9.591  23.807  0.00  0.00     0.041 C 
HETATM    3  C   UNL     1      -1.115  10.428  23.620  0.00  0.00     0.023 C 
HETATM    4  C   UNL     1      -1.883  10.726  24.752  0.00  0.00     0.078 C 
HETATM    5  C   UNL     1      -1.524  10.261  26.021  0.00  0.00     0.075 C 
HETATM    6  C   UNL     1      -0.340   9.546  26.201  0.00  0.00     0.091 C 
ENDROOT
BRANCH   3   7
HETATM    7  C   UNL     1      -1.297  11.146  22.292  0.00  0.00     0.277 C 
HETATM    8  N   UNL     1      -2.732  11.108  21.912  0.00  0.00    -0.156 NA
HETATM    9  N   UNL     1      -3.119  12.251  21.560  0.00  0.00    -0.093 NA
HETATM   10  C   UNL     1      -2.075  13.151  21.660  0.00  0.00     0.369 C 
HETATM   11  O   UNL     1      -2.131  14.297  21.242  0.00  0.00    -0.243 OA
HETATM   12  N   UNL     1      -0.979  12.535  22.244  0.00  0.00    -0.264 N 
BRANCH  12  13
HETATM   13  C   UNL     1       0.295  13.116  22.458  0.00  0.00     0.080 A 
HETATM   14  C   UNL     1       1.166  13.336  21.383  0.00  0.00     0.033 A 
HETATM   15  C   UNL     1       2.434  13.903  21.574  0.00  0.00     0.002 A 
HETATM   16  C   UNL     1       2.850  14.263  22.849  0.00  0.00     0.003 A 
HETATM   17  C   UNL     1       1.998  14.066  23.932  0.00  0.00     0.044 A 
HETATM   18  C   UNL     1       0.739  13.499  23.734  0.00  0.00     0.143 A 
HETATM   19  F   UNL     1      -0.018  13.276  24.821  0.00  0.00    -0.204 F 
ENDBRANCH  12  13
ENDBRANCH   3   7
BRANCH   4  20
HETATM   20  O   UNL     1      -2.992  11.522  24.717  0.00  0.00    -0.360 OA
HETATM   21  H   UNL     1      -2.915  12.183  24.008  0.00  0.00     0.217 HD
ENDBRANCH   4  20
BRANCH   1  22
HETATM   22  S   UNL     1       2.051   8.473  25.224  0.00  0.00     0.246 S 
HETATM   23  O   UNL     1       2.867   9.366  26.020  0.00  0.00    -0.206 OA
HETATM   24  O   UNL     1       2.517   8.082  23.913  0.00  0.00    -0.206 OA
BRANCH  22  25
HETATM   25  N   UNL     1       1.730   7.041  26.164  0.00  0.00    -0.207 NA
HETATM   26  C   UNL     1       2.971   6.482  26.773  0.00  0.00     0.130 C 
BRANCH  25  27
HETATM   27  C   UNL     1       0.822   5.978  25.579  0.00  0.00     0.065 C 
HETATM   28  C   UNL     1       1.573   4.656  25.359  0.00  0.00     0.027 C 
HETATM   29  C   UNL     1      -0.372   5.631  26.475  0.00  0.00     0.027 C 
ENDBRANCH  25  27
ENDBRANCH  22  25
ENDBRANCH   1  22
BRANCH   6  30
HETATM   30  O   UNL     1       0.053   9.234  27.467  0.00  0.00    -0.359 OA
HETATM   31  H   UNL     1      -0.325   9.868  28.101  0.00  0.00     0.217 HD
ENDBRANCH   6  30
TORSDOF 7
ENDMDL
MODEL 7
REMARK VINA RESULT:    -7.505      2.451      5.723
REMARK INTER + INTRA:         -11.755
REMARK INTER:                 -10.137
REMARK INTRA:                  -1.617
REMARK UNBOUND:                -1.617
REMARK  7 active torsions:
REMARK  status: ('A' for Active; 'I' for Inactive)
REMARK    1  A    between atoms: C_2  and  N_4 
REMARK    2  A    between atoms: N_4  and  S_6 
REMARK    3  A    between atoms: S_6  and  C_9 
REMARK    4  A    between atoms: C_11  and  C_12 
REMARK    5  A    between atoms: N_17  and  C_18 
REMARK    6  A    between atoms: C_25  and  O_26 
REMARK    7  A    between atoms: C_28  and  O_29 
ROOT
HETATM    1  C   UNL     1      -3.465  13.173  23.473  0.00  0.00     0.108 C 
HETATM    2  C   UNL     1      -2.193  13.686  23.796  0.00  0.00     0.041 C 
HETATM    3  C   UNL     1      -1.673  14.819  23.154  0.00  0.00     0.023 C 
HETATM    4  C   UNL     1      -2.381  15.301  22.046  0.00  0.00     0.078 C 
HETATM    5  C   UNL     1      -3.583  14.717  21.637  0.00  0.00     0.075 C 
HETATM    6  C   UNL     1      -4.150  13.679  22.376  0.00  0.00     0.091 C 
ENDROOT
BRANCH   3   7
HETATM    7  C   UNL     1      -0.537  15.595  23.803  0.00  0.00     0.277 C 
HETATM    8  N   UNL     1      -0.676  15.512  25.280  0.00  0.00    -0.156 NA
HETATM    9  N   UNL     1       0.427  15.212  25.803  0.00  0.00    -0.093 NA
HETATM   10  C   UNL     1       1.385  15.051  24.820  0.00  0.00     0.369 C 
HETATM   11  O   UNL     1       2.574  14.903  25.054  0.00  0.00    -0.243 OA
HETATM   12  N   UNL     1       0.792  15.138  23.569  0.00  0.00    -0.264 N 
BRANCH  12  13
HETATM   13  C   UNL     1       1.457  15.084  22.320  0.00  0.00     0.080 A 
HETATM   14  C   UNL     1       1.956  16.251  21.728  0.00  0.00     0.033 A 
HETATM   15  C   UNL     1       2.610  16.221  20.488  0.00  0.00     0.002 A 
HETATM   16  C   UNL     1       2.780  15.015  19.821  0.00  0.00     0.003 A 
HETATM   17  C   UNL     1       2.305  13.838  20.395  0.00  0.00     0.044 A 
HETATM   18  C   UNL     1       1.653  13.878  21.627  0.00  0.00     0.143 A 
HETATM   19  F   UNL     1       1.161  12.722  22.105  0.00  0.00    -0.204 F 
ENDBRANCH  12  13
ENDBRANCH   3   7
BRANCH   4  20
HETATM   20  O   UNL     1      -1.989  16.391  21.323  0.00  0.00    -0.360 OA
HETATM   21  H   UNL     1      -1.651  16.121  20.453  0.00  0.00     0.217 HD
ENDBRANCH   4  20
BRANCH   1  22
HETATM   22  S   UNL     1      -4.171  11.971  24.591  0.00  0.00     0.246 S 
HETATM   23  O   UNL     1      -4.921  11.034  23.779  0.00  0.00    -0.206 OA
HETATM   24  O   UNL     1      -4.842  12.646  25.679  0.00  0.00    -0.206 OA
BRANCH  22  25
HETATM   25  N   UNL     1      -2.763  11.153  25.211  0.00  0.00    -0.207 NA
HETATM   26  C   UNL     1      -2.307  10.059  24.305  0.00  0.00     0.130 C 
BRANCH  25  27
HETATM   27  C   UNL     1      -2.736  10.764  26.675  0.00  0.00     0.065 C 
HETATM   28  C   UNL     1      -1.622   9.746  26.966  0.00  0.00     0.027 C 
HETATM   29  C   UNL     1      -2.476  11.943  27.618  0.00  0.00     0.027 C 
ENDBRANCH  25  27
ENDBRANCH  22  25
ENDBRANCH   1  22
BRANCH   6  30
HETATM   30  O   UNL     1      -5.390  13.231  22.037  0.00  0.00    -0.359 OA
HETATM   31  H   UNL     1      -5.478  12.288  22.258  0.00  0.00     0.217 HD
ENDBRANCH   6  30
TORSDOF 7
ENDMDL
MODEL 8
REMARK VINA RESULT:    -7.499      1.288      1.579
REMARK INTER + INTRA:         -11.746
REMARK INTER:                  -9.305
REMARK INTRA:                  -2.442
REMARK UNBOUND:                -1.617
REMARK  7 active torsions:
REMARK  status: ('A' for Active; 'I' for Inactive)
REMARK    1  A    between atoms: C_2  and  N_4 
REMARK    2  A    between atoms: N_4  and  S_6 
REMARK    3  A    between atoms: S_6  and  C_9 
REMARK    4  A    between atoms: C_11  and  C_12 
REMARK    5  A    between atoms: N_17  and  C_18 
REMARK    6  A    between atoms: C_25  and  O_26 
REMARK    7  A    between atoms: C_28  and  O_29 
ROOT
HETATM    1  C   UNL     1      -1.185  15.143  23.319  0.00  0.00     0.108 C 
HETATM    2  C   UNL     1      -1.135  14.688  24.653  0.00  0.00     0.041 C 
HETATM    3  C   UNL     1      -2.203  13.985  25.229  0.00  0.00     0.023 C 
HETATM    4  C   UNL     1      -3.394  13.925  24.495  0.00  0.00     0.078 C 
HETATM    5  C   UNL     1      -3.494  14.486  23.219  0.00  0.00     0.075 C 
HETATM    6  C   UNL     1      -2.377  15.059  22.611  0.00  0.00     0.091 C 
ENDROOT
BRANCH   3   7
HETATM    7  C   UNL     1      -1.962  13.144  26.473  0.00  0.00     0.277 C 
HETATM    8  N   UNL     1      -3.043  13.411  27.456  0.00  0.00    -0.156 NA
HETATM    9  N   UNL     1      -3.498  12.328  27.906  0.00  0.00    -0.093 NA
HETATM   10  C   UNL     1      -2.841  11.264  27.319  0.00  0.00     0.369 C 
HETATM   11  O   UNL     1      -2.979  10.104  27.678  0.00  0.00    -0.243 OA
HETATM   12  N   UNL     1      -1.990  11.726  26.327  0.00  0.00    -0.264 N 
BRANCH  12  13
HETATM   13  C   UNL     1      -1.105  10.942  25.546  0.00  0.00     0.080 A 
HETATM   14  C   UNL     1       0.145  10.564  26.051  0.00  0.00     0.033 A 
HETATM   15  C   UNL     1       1.038   9.794  25.293  0.00  0.00     0.002 A 
HETATM   16  C   UNL     1       0.689   9.386  24.012  0.00  0.00     0.003 A 
HETATM   17  C   UNL     1      -0.554   9.738  23.492  0.00  0.00     0.044 A 
HETATM   18  C   UNL     1      -1.435  10.506  24.253  0.00  0.00     0.143 A 
HETATM   19  F   UNL     1      -2.595  10.868  23.679  0.00  0.00    -0.204 F 
ENDBRANCH  12  13
ENDBRANCH   3   7
BRANCH   4  20
HETATM   20  O   UNL     1      -4.514  13.279  24.935  0.00  0.00    -0.360 OA
HETATM   21  H   UNL     1      -5.185  13.242  24.233  0.00  0.00     0.217 HD
ENDBRANCH   4  20
BRANCH   1  22
HETATM   22  S   UNL     1       0.348  15.692  22.584  0.00  0.00     0.246 S 
HETATM   23  O   UNL     1       1.090  16.375  23.624  0.00  0.00    -0.206 OA
HETATM   24  O   UNL     1       0.077  16.389  21.346  0.00  0.00    -0.206 OA
BRANCH  22  25
HETATM   25  N   UNL     1       1.159  14.192  22.227  0.00  0.00    -0.207 NA
HETATM   26  C   UNL     1       2.599  14.229  22.613  0.00  0.00     0.130 C 
BRANCH  25  27
HETATM   27  C   UNL     1       0.920  13.541  20.879  0.00  0.00     0.065 C 
HETATM   28  C   UNL     1       2.226  13.410  20.079  0.00  0.00     0.027 C 
HETATM   29  C   UNL     1       0.349  12.123  20.976  0.00  0.00     0.027 C 
ENDBRANCH  25  27
ENDBRANCH  22  25
ENDBRANCH   1  22
BRANCH   6  30
HETATM   30  O   UNL     1      -2.469  15.464  21.314  0.00  0.00    -0.359 OA
HETATM   31  H   UNL     1      -3.386  15.714  21.106  0.00  0.00     0.217 HD
ENDBRANCH   6  30
TORSDOF 7
ENDMDL
MODEL 9
REMARK VINA RESULT:    -7.430      3.114      6.266
REMARK INTER + INTRA:         -11.654
REMARK INTER:                  -9.632
REMARK INTRA:                  -2.022
REMARK UNBOUND:                -1.617
REMARK  7 active torsions:
REMARK  status: ('A' for Active; 'I' for Inactive)
REMARK    1  A    between atoms: C_2  and  N_4 
REMARK    2  A    between atoms: N_4  and  S_6 
REMARK    3  A    between atoms: S_6  and  C_9 
REMARK    4  A    between atoms: C_11  and  C_12 
REMARK    5  A    between atoms: N_17  and  C_18 
REMARK    6  A    between atoms: C_25  and  O_26 
REMARK    7  A    between atoms: C_28  and  O_29 
ROOT
HETATM    1  C   UNL     1      -0.404   9.589  26.293  0.00  0.00     0.108 C 
HETATM    2  C   UNL     1      -0.902  10.039  25.053  0.00  0.00     0.041 C 
HETATM    3  C   UNL     1      -2.102  10.760  24.961  0.00  0.00     0.023 C 
HETATM    4  C   UNL     1      -2.883  10.844  26.120  0.00  0.00     0.078 C 
HETATM    5  C   UNL     1      -2.456  10.288  27.330  0.00  0.00     0.075 C 
HETATM    6  C   UNL     1      -1.196   9.697  27.429  0.00  0.00     0.091 C 
ENDROOT
BRANCH   3   7
HETATM    7  C   UNL     1      -2.382  11.593  23.720  0.00  0.00     0.277 C 
HETATM    8  N   UNL     1      -3.731  11.252  23.202  0.00  0.00    -0.156 NA
HETATM    9  N   UNL     1      -4.381  12.300  22.957  0.00  0.00    -0.093 NA
HETATM   10  C   UNL     1      -3.616  13.408  23.266  0.00  0.00     0.369 C 
HETATM   11  O   UNL     1      -3.943  14.552  22.990  0.00  0.00    -0.243 OA
HETATM   12  N   UNL     1      -2.436  13.009  23.874  0.00  0.00    -0.264 N 
BRANCH  12  13
HETATM   13  C   UNL     1      -1.373  13.854  24.280  0.00  0.00     0.080 A 
HETATM   14  C   UNL     1      -0.340  14.176  23.390  0.00  0.00     0.033 A 
HETATM   15  C   UNL     1       0.724  15.004  23.773  0.00  0.00     0.002 A 
HETATM   16  C   UNL     1       0.770  15.527  25.059  0.00  0.00     0.003 A 
HETATM   17  C   UNL     1      -0.251  15.231  25.959  0.00  0.00     0.044 A 
HETATM   18  C   UNL     1      -1.305  14.405  25.569  0.00  0.00     0.143 A 
HETATM   19  F   UNL     1      -2.231  14.105  26.496  0.00  0.00    -0.204 F 
ENDBRANCH  12  13
ENDBRANCH   3   7
BRANCH   4  20
HETATM   20  O   UNL     1      -4.074  11.508  26.175  0.00  0.00    -0.360 OA
HETATM   21  H   UNL     1      -4.694  11.152  25.517  0.00  0.00     0.217 HD
ENDBRANCH   4  20
BRANCH   1  22
HETATM   22  S   UNL     1       1.287   9.015  26.336  0.00  0.00     0.246 S 
HETATM   23  O   UNL     1       1.573   8.660  27.712  0.00  0.00    -0.206 OA
HETATM   24  O   UNL     1       2.146   9.965  25.666  0.00  0.00    -0.206 OA
BRANCH  22  25
HETATM   25  N   UNL     1       1.216   7.549  25.397  0.00  0.00    -0.207 NA
HETATM   26  C   UNL     1       1.808   7.725  24.039  0.00  0.00     0.130 C 
BRANCH  25  27
HETATM   27  C   UNL     1      -0.077   6.757  25.385  0.00  0.00     0.065 C 
HETATM   28  C   UNL     1      -0.133   5.791  24.191  0.00  0.00     0.027 C 
HETATM   29  C   UNL     1      -0.274   5.889  26.631  0.00  0.00     0.027 C 
ENDBRANCH  25  27
ENDBRANCH  22  25
ENDBRANCH   1  22
BRANCH   6  30
HETATM   30  O   UNL     1      -0.752   9.297  28.652  0.00  0.00    -0.359 OA
HETATM   31  H   UNL     1      -0.696   8.326  28.688  0.00  0.00     0.217 HD
ENDBRANCH   6  30
TORSDOF 7
ENDMDL
