MODEL 1
REMARK VINA RESULT:    -7.603      0.000      0.000
REMARK INTER + INTRA:         -12.813
REMARK INTER:                 -11.554
REMARK INTRA:                  -1.259
REMARK UNBOUND:                -2.099
REMARK  8 active torsions:
REMARK  status: ('A' for Active; 'I' for Inactive)
REMARK    1  A    between atoms: C_6  and  N_7 
REMARK    2  A    between atoms: C_13  and  C_14 
REMARK    3  A    between atoms: C_15  and  O_16 
REMARK    4  A    between atoms: C_18  and  O_19 
REMARK    5  A    between atoms: C_21  and  C_22 
REMARK       I    between atoms: C_22  and  N_24 
REMARK    6  A    between atoms: N_24  and  C_26 
REMARK    7  A    between atoms: C_26  and  C_27 
REMARK    8  A    between atoms: C_27  and  C_28 
ROOT
HETATM    1  C   UNL     1      -1.371  11.361  25.397  0.00  0.00     0.046 C 
HETATM    2  C   UNL     1      -2.082  11.462  24.200  0.00  0.00     0.082 C 
HETATM    3  C   UNL     1      -1.474  12.011  23.076  0.00  0.00     0.075 C 
HETATM    4  C   UNL     1      -0.144  12.454  23.144  0.00  0.00     0.084 C 
HETATM    5  C   UNL     1      -0.014  11.702  25.404  0.00  0.00     0.038 C 
HETATM    6  C   UNL     1       0.619  12.318  24.323  0.00  0.00     0.066 C 
ENDROOT
BRANCH   1   7
HETATM    7  C   UNL     1      -2.029  10.870  26.634  0.00  0.00     0.171 A 
HETATM    8  N   UNL     1      -1.730   9.714  27.329  0.00  0.00    -0.244 N 
HETATM    9  C   UNL     1      -2.726   9.628  28.288  0.00  0.00     0.349 A 
HETATM   10  O   UNL     1      -2.957   8.768  29.126  0.00  0.00    -0.245 OA
HETATM   11  N   UNL     1      -3.491  10.778  28.146  0.00  0.00    -0.226 N 
HETATM   12  H   UNL     1      -4.321  10.995  28.684  0.00  0.00     0.194 HD
HETATM   13  N   UNL     1      -3.052  11.536  27.111  0.00  0.00    -0.151 NA
BRANCH   8  14
HETATM   14  C   UNL     1      -0.682   8.751  27.186  0.00  0.00     0.045 C 
HETATM   15  C   UNL     1      -0.370   8.155  25.954  0.00  0.00     0.030 C 
HETATM   16  C   UNL     1       0.483   7.048  25.869  0.00  0.00     0.002 C 
HETATM   17  C   UNL     1       1.142   6.588  27.001  0.00  0.00     0.000 C 
HETATM   18  C   UNL     1       0.962   7.250  28.209  0.00  0.00     0.002 C 
HETATM   19  C   UNL     1       0.055   8.316  28.299  0.00  0.00     0.030 C 
ENDBRANCH   8  14
ENDBRANCH   1   7
BRANCH   2  20
HETATM   20  O   UNL     1      -3.377  11.043  24.057  0.00  0.00    -0.360 OA
HETATM   21  H   UNL     1      -3.517  10.270  24.647  0.00  0.00     0.217 HD
ENDBRANCH   2  20
BRANCH   6  22
HETATM   22  C   UNL     1       1.946  13.022  24.477  0.00  0.00     0.256 C 
HETATM   23  O   UNL     1       2.791  12.779  23.608  0.00  0.00    -0.267 OA
HETATM   24  N   UNL     1       2.255  13.959  25.488  0.00  0.00    -0.352 N 
HETATM   25  C   UNL     1       1.428  14.473  26.573  0.00  0.00     0.152 C 
BRANCH  24  26
HETATM   26  C   UNL     1       3.667  14.368  25.577  0.00  0.00     0.125 C 
BRANCH  26  27
HETATM   27  C   UNL     1       3.861  15.861  25.299  0.00  0.00     0.020 C 
BRANCH  27  28
HETATM   28  C   UNL     1       4.145  16.129  23.819  0.00  0.00    -0.003 C 
HETATM   29  C   UNL     1       5.464  15.505  23.386  0.00  0.00     0.005 C 
ENDBRANCH  27  28
ENDBRANCH  26  27
ENDBRANCH  24  26
ENDBRANCH   6  22
BRANCH   4  30
HETATM   30  O   UNL     1       0.405  12.998  22.015  0.00  0.00    -0.360 OA
HETATM   31  H   UNL     1       0.048  12.563  21.223  0.00  0.00     0.217 HD
ENDBRANCH   4  30
TORSDOF 8
ENDMDL
MODEL 2
REMARK VINA RESULT:    -7.302      3.753      8.605
REMARK INTER + INTRA:         -12.389
REMARK INTER:                 -10.672
REMARK INTRA:                  -1.718
REMARK UNBOUND:                -2.099
REMARK  8 active torsions:
REMARK  status: ('A' for Active; 'I' for Inactive)
REMARK    1  A    between atoms: C_6  and  N_7 
REMARK    2  A    between atoms: C_13  and  C_14 
REMARK    3  A    between atoms: C_15  and  O_16 
REMARK    4  A    between atoms: C_18  and  O_19 
REMARK    5  A    between atoms: C_21  and  C_22 
REMARK       I    between atoms: C_22  and  N_24 
REMARK    6  A    between atoms: N_24  and  C_26 
REMARK    7  A    between atoms: C_26  and  C_27 
REMARK    8  A    between atoms: C_27  and  C_28 
ROOT
HETATM    1  C   UNL     1       6.278  11.554  24.418  0.00  0.00     0.046 C 
HETATM    2  C   UNL     1       6.764  10.790  23.356  0.00  0.00     0.082 C 
HETATM    3  C   UNL     1       5.911   9.932  22.671  0.00  0.00     0.075 C 
HETATM    4  C   UNL     1       4.560   9.843  23.041  0.00  0.00     0.084 C 
HETATM    5  C   UNL     1       4.906  11.532  24.690  0.00  0.00     0.038 C 
HETATM    6  C   UNL     1       4.025  10.640  24.076  0.00  0.00     0.066 C 
ENDROOT
BRANCH   1   7
HETATM    7  C   UNL     1       7.190  12.401  25.228  0.00  0.00     0.171 A 
HETATM    8  N   UNL     1       7.085  13.763  25.441  0.00  0.00    -0.244 N 
HETATM    9  C   UNL     1       8.255  14.093  26.105  0.00  0.00     0.349 A 
HETATM   10  O   UNL     1       8.686  15.175  26.477  0.00  0.00    -0.245 OA
HETATM   11  N   UNL     1       8.927  12.895  26.310  0.00  0.00    -0.226 N 
HETATM   12  H   UNL     1       9.838  12.806  26.743  0.00  0.00     0.194 HD
HETATM   13  N   UNL     1       8.259  11.855  25.753  0.00  0.00    -0.151 NA
BRANCH   8  14
HETATM   14  C   UNL     1       6.071  14.713  25.101  0.00  0.00     0.045 C 
HETATM   15  C   UNL     1       5.109  15.150  26.025  0.00  0.00     0.030 C 
HETATM   16  C   UNL     1       3.987  15.885  25.623  0.00  0.00     0.002 C 
HETATM   17  C   UNL     1       3.865  16.306  24.305  0.00  0.00     0.000 C 
HETATM   18  C   UNL     1       4.876  16.009  23.400  0.00  0.00     0.002 C 
HETATM   19  C   UNL     1       5.964  15.217  23.795  0.00  0.00     0.030 C 
ENDBRANCH   8  14
ENDBRANCH   1   7
BRANCH   2  20
HETATM   20  O   UNL     1       8.066  10.833  22.934  0.00  0.00    -0.360 OA
HETATM   21  H   UNL     1       8.518  11.567  23.405  0.00  0.00     0.217 HD
ENDBRANCH   2  20
BRANCH   6  22
HETATM   22  C   UNL     1       2.654  10.360  24.644  0.00  0.00     0.256 C 
HETATM   23  O   UNL     1       2.520   9.278  25.226  0.00  0.00    -0.267 OA
HETATM   24  N   UNL     1       1.562  11.256  24.606  0.00  0.00    -0.352 N 
HETATM   25  C   UNL     1       1.475  12.603  24.056  0.00  0.00     0.152 C 
BRANCH  24  26
HETATM   26  C   UNL     1       0.264  10.705  25.031  0.00  0.00     0.125 C 
BRANCH  26  27
HETATM   27  C   UNL     1      -0.717  10.556  23.865  0.00  0.00     0.020 C 
BRANCH  27  28
HETATM   28  C   UNL     1      -2.070  11.199  24.177  0.00  0.00    -0.003 C 
HETATM   29  C   UNL     1      -2.577  12.021  23.000  0.00  0.00     0.005 C 
ENDBRANCH  27  28
ENDBRANCH  26  27
ENDBRANCH  24  26
ENDBRANCH   6  22
BRANCH   4  30
HETATM   30  O   UNL     1       3.765   8.975  22.344  0.00  0.00    -0.360 OA
HETATM   31  H   UNL     1       3.474   9.380  21.511  0.00  0.00     0.217 HD
ENDBRANCH   4  30
TORSDOF 8
ENDMDL
MODEL 3
REMARK VINA RESULT:    -7.187      6.065     10.011
REMARK INTER + INTRA:         -12.227
REMARK INTER:                 -10.313
REMARK INTRA:                  -1.914
REMARK UNBOUND:                -2.099
REMARK  8 active torsions:
REMARK  status: ('A' for Active; 'I' for Inactive)
REMARK    1  A    between atoms: C_6  and  N_7 
REMARK    2  A    between atoms: C_13  and  C_14 
REMARK    3  A    between atoms: C_15  and  O_16 
REMARK    4  A    between atoms: C_18  and  O_19 
REMARK    5  A    between atoms: C_21  and  C_22 
REMARK       I    between atoms: C_22  and  N_24 
REMARK    6  A    between atoms: N_24  and  C_26 
REMARK    7  A    between atoms: C_26  and  C_27 
REMARK    8  A    between atoms: C_27  and  C_28 
ROOT
HETATM    1  C   UNL     1       8.162  12.704  22.072  0.00  0.00     0.046 C 
HETATM    2  C   UNL     1       8.516  12.823  20.727  0.00  0.00     0.082 C 
HETATM    3  C   UNL     1       7.929  11.992  19.779  0.00  0.00     0.075 C 
HETATM    4  C   UNL     1       6.974  11.042  20.174  0.00  0.00     0.084 C 
HETATM    5  C   UNL     1       7.126  11.830  22.421  0.00  0.00     0.038 C 
HETATM    6  C   UNL     1       6.556  10.931  21.518  0.00  0.00     0.066 C 
ENDROOT
BRANCH   1   7
HETATM    7  C   UNL     1       8.847  13.511  23.114  0.00  0.00     0.171 A 
HETATM    8  N   UNL     1       8.271  14.457  23.941  0.00  0.00    -0.244 N 
HETATM    9  C   UNL     1       9.347  15.033  24.596  0.00  0.00     0.349 A 
HETATM   10  O   UNL     1       9.395  15.958  25.395  0.00  0.00    -0.245 OA
HETATM   11  N   UNL     1      10.469  14.332  24.175  0.00  0.00    -0.226 N 
HETATM   12  H   UNL     1      11.421  14.538  24.451  0.00  0.00     0.194 HD
HETATM   13  N   UNL     1      10.145  13.395  23.249  0.00  0.00    -0.151 NA
BRANCH   8  14
HETATM   14  C   UNL     1       6.912  14.849  24.152  0.00  0.00     0.045 C 
HETATM   15  C   UNL     1       6.133  15.438  23.145  0.00  0.00     0.030 C 
HETATM   16  C   UNL     1       4.896  16.033  23.427  0.00  0.00     0.002 C 
HETATM   17  C   UNL     1       4.355  15.944  24.702  0.00  0.00     0.000 C 
HETATM   18  C   UNL     1       5.041  15.241  25.684  0.00  0.00     0.002 C 
HETATM   19  C   UNL     1       6.307  14.704  25.412  0.00  0.00     0.030 C 
ENDBRANCH   8  14
ENDBRANCH   1   7
BRANCH   2  20
HETATM   20  O   UNL     1       9.431  13.732  20.269  0.00  0.00    -0.360 OA
HETATM   21  H   UNL     1      10.159  13.241  19.829  0.00  0.00     0.217 HD
ENDBRANCH   2  20
BRANCH   6  22
HETATM   22  C   UNL     1       5.736   9.752  21.983  0.00  0.00     0.256 C 
HETATM   23  O   UNL     1       4.558   9.730  21.609  0.00  0.00    -0.267 OA
HETATM   24  N   UNL     1       6.231   8.670  22.747  0.00  0.00    -0.352 N 
HETATM   25  C   UNL     1       7.576   8.416  23.246  0.00  0.00     0.152 C 
BRANCH  24  26
HETATM   26  C   UNL     1       5.220   7.734  23.266  0.00  0.00     0.125 C 
BRANCH  26  27
HETATM   27  C   UNL     1       4.961   7.926  24.763  0.00  0.00     0.020 C 
BRANCH  27  28
HETATM   28  C   UNL     1       3.809   8.902  25.018  0.00  0.00    -0.003 C 
HETATM   29  C   UNL     1       4.327  10.283  25.393  0.00  0.00     0.005 C 
ENDBRANCH  27  28
ENDBRANCH  26  27
ENDBRANCH  24  26
ENDBRANCH   6  22
BRANCH   4  30
HETATM   30  O   UNL     1       6.435  10.239  19.206  0.00  0.00    -0.360 OA
HETATM   31  H   UNL     1       6.263   9.352  19.562  0.00  0.00     0.217 HD
ENDBRANCH   4  30
TORSDOF 8
ENDMDL
MODEL 4
REMARK VINA RESULT:    -7.110      3.927      8.988
REMARK INTER + INTRA:         -12.119
REMARK INTER:                 -10.463
REMARK INTRA:                  -1.655
REMARK UNBOUND:                -2.099
REMARK  8 active torsions:
REMARK  status: ('A' for Active; 'I' for Inactive)
REMARK    1  A    between atoms: C_6  and  N_7 
REMARK    2  A    between atoms: C_13  and  C_14 
REMARK    3  A    between atoms: C_15  and  O_16 
REMARK    4  A    between atoms: C_18  and  O_19 
REMARK    5  A    between atoms: C_21  and  C_22 
REMARK       I    between atoms: C_22  and  N_24 
REMARK    6  A    between atoms: N_24  and  C_26 
REMARK    7  A    between atoms: C_26  and  C_27 
REMARK    8  A    between atoms: C_27  and  C_28 
ROOT
HETATM    1  C   UNL     1       6.773  12.197  22.871  0.00  0.00     0.046 C 
HETATM    2  C   UNL     1       7.048  11.720  21.589  0.00  0.00     0.082 C 
HETATM    3  C   UNL     1       6.143  10.877  20.953  0.00  0.00     0.075 C 
HETATM    4  C   UNL     1       4.950  10.514  21.597  0.00  0.00     0.084 C 
HETATM    5  C   UNL     1       5.527  11.913  23.441  0.00  0.00     0.038 C 
HETATM    6  C   UNL     1       4.617  11.020  22.872  0.00  0.00     0.066 C 
ENDROOT
BRANCH   1   7
HETATM    7  C   UNL     1       7.767  13.016  23.609  0.00  0.00     0.171 A 
HETATM    8  N   UNL     1       7.536  14.217  24.254  0.00  0.00    -0.244 N 
HETATM    9  C   UNL     1       8.799  14.649  24.626  0.00  0.00     0.349 A 
HETATM   10  O   UNL     1       9.161  15.679  25.177  0.00  0.00    -0.245 OA
HETATM   11  N   UNL     1       9.673  13.638  24.251  0.00  0.00    -0.226 N 
HETATM   12  H   UNL     1      10.680  13.670  24.358  0.00  0.00     0.194 HD
HETATM   13  N   UNL     1       9.020  12.634  23.614  0.00  0.00    -0.151 NA
BRANCH   8  14
HETATM   14  C   UNL     1       6.336  14.946  24.526  0.00  0.00     0.045 C 
HETATM   15  C   UNL     1       5.764  15.002  25.806  0.00  0.00     0.030 C 
HETATM   16  C   UNL     1       4.474  15.508  26.012  0.00  0.00     0.002 C 
HETATM   17  C   UNL     1       3.776  16.085  24.960  0.00  0.00     0.000 C 
HETATM   18  C   UNL     1       4.378  16.172  23.711  0.00  0.00     0.002 C 
HETATM   19  C   UNL     1       5.643  15.604  23.498  0.00  0.00     0.030 C 
ENDBRANCH   8  14
ENDBRANCH   1   7
BRANCH   2  20
HETATM   20  O   UNL     1       8.185  12.039  20.896  0.00  0.00    -0.360 OA
HETATM   21  H   UNL     1       7.994  11.957  19.936  0.00  0.00     0.217 HD
ENDBRANCH   2  20
BRANCH   6  22
HETATM   22  C   UNL     1       3.476  10.434  23.668  0.00  0.00     0.256 C 
HETATM   23  O   UNL     1       3.552   9.225  23.912  0.00  0.00    -0.267 OA
HETATM   24  N   UNL     1       2.388  11.170  24.189  0.00  0.00    -0.352 N 
HETATM   25  C   UNL     1       2.101  12.597  24.112  0.00  0.00     0.152 C 
BRANCH  24  26
HETATM   26  C   UNL     1       1.285  10.374  24.754  0.00  0.00     0.125 C 
BRANCH  26  27
HETATM   27  C   UNL     1      -0.017  11.173  24.860  0.00  0.00     0.020 C 
BRANCH  27  28
HETATM   28  C   UNL     1      -1.110  10.597  23.958  0.00  0.00    -0.003 C 
HETATM   29  C   UNL     1      -1.826  11.695  23.184  0.00  0.00     0.005 C 
ENDBRANCH  27  28
ENDBRANCH  26  27
ENDBRANCH  24  26
ENDBRANCH   6  22
BRANCH   4  30
HETATM   30  O   UNL     1       4.099   9.672  20.935  0.00  0.00    -0.360 OA
HETATM   31  H   UNL     1       3.512  10.179  20.349  0.00  0.00     0.217 HD
ENDBRANCH   4  30
TORSDOF 8
ENDMDL
MODEL 5
REMARK VINA RESULT:    -7.068      6.726     10.255
REMARK INTER + INTRA:         -12.059
REMARK INTER:                 -10.463
REMARK INTRA:                  -1.596
REMARK UNBOUND:                -2.099
REMARK  8 active torsions:
REMARK  status: ('A' for Active; 'I' for Inactive)
REMARK    1  A    between atoms: C_6  and  N_7 
REMARK    2  A    between atoms: C_13  and  C_14 
REMARK    3  A    between atoms: C_15  and  O_16 
REMARK    4  A    between atoms: C_18  and  O_19 
REMARK    5  A    between atoms: C_21  and  C_22 
REMARK       I    between atoms: C_22  and  N_24 
REMARK    6  A    between atoms: N_24  and  C_26 
REMARK    7  A    between atoms: C_26  and  C_27 
REMARK    8  A    between atoms: C_27  and  C_28 
ROOT
HETATM    1  C   UNL     1       8.160  12.693  22.113  0.00  0.00     0.046 C 
HETATM    2  C   UNL     1       8.474  12.870  20.765  0.00  0.00     0.082 C 
HETATM    3  C   UNL     1       7.898  12.047  19.804  0.00  0.00     0.075 C 
HETATM    4  C   UNL     1       6.993  11.045  20.189  0.00  0.00     0.084 C 
HETATM    5  C   UNL     1       7.169  11.766  22.456  0.00  0.00     0.038 C 
HETATM    6  C   UNL     1       6.613  10.874  21.537  0.00  0.00     0.066 C 
ENDROOT
BRANCH   1   7
HETATM    7  C   UNL     1       8.837  13.492  23.165  0.00  0.00     0.171 A 
HETATM    8  N   UNL     1       8.256  14.438  23.990  0.00  0.00    -0.244 N 
HETATM    9  C   UNL     1       9.328  15.007  24.658  0.00  0.00     0.349 A 
HETATM   10  O   UNL     1       9.371  15.928  25.462  0.00  0.00    -0.245 OA
HETATM   11  N   UNL     1      10.452  14.304  24.244  0.00  0.00    -0.226 N 
HETATM   12  H   UNL     1      11.402  14.506  24.530  0.00  0.00     0.194 HD
HETATM   13  N   UNL     1      10.133  13.372  23.312  0.00  0.00    -0.151 NA
BRANCH   8  14
HETATM   14  C   UNL     1       6.896  14.832  24.190  0.00  0.00     0.045 C 
HETATM   15  C   UNL     1       6.117  15.394  23.167  0.00  0.00     0.030 C 
HETATM   16  C   UNL     1       4.880  15.995  23.433  0.00  0.00     0.002 C 
HETATM   17  C   UNL     1       4.337  15.937  24.710  0.00  0.00     0.000 C 
HETATM   18  C   UNL     1       5.024  15.261  25.710  0.00  0.00     0.002 C 
HETATM   19  C   UNL     1       6.291  14.719  25.453  0.00  0.00     0.030 C 
ENDBRANCH   8  14
ENDBRANCH   1   7
BRANCH   2  20
HETATM   20  O   UNL     1       9.340  13.830  20.315  0.00  0.00    -0.360 OA
HETATM   21  H   UNL     1       8.946  14.250  19.519  0.00  0.00     0.217 HD
ENDBRANCH   2  20
BRANCH   6  22
HETATM   22  C   UNL     1       5.854   9.647  21.982  0.00  0.00     0.256 C 
HETATM   23  O   UNL     1       4.654   9.618  21.690  0.00  0.00    -0.267 OA
HETATM   24  N   UNL     1       6.424   8.533  22.640  0.00  0.00    -0.352 N 
HETATM   25  C   UNL     1       7.807   8.284  23.029  0.00  0.00     0.152 C 
BRANCH  24  26
HETATM   26  C   UNL     1       5.473   7.541  23.167  0.00  0.00     0.125 C 
BRANCH  26  27
HETATM   27  C   UNL     1       5.449   7.511  24.698  0.00  0.00     0.020 C 
BRANCH  27  28
HETATM   28  C   UNL     1       5.366   6.080  25.235  0.00  0.00    -0.003 C 
HETATM   29  C   UNL     1       6.544   5.241  24.760  0.00  0.00     0.005 C 
ENDBRANCH  27  28
ENDBRANCH  26  27
ENDBRANCH  24  26
ENDBRANCH   6  22
BRANCH   4  30
HETATM   30  O   UNL     1       6.463  10.253  19.207  0.00  0.00    -0.360 OA
HETATM   31  H   UNL     1       6.735   9.330  19.336  0.00  0.00     0.217 HD
ENDBRANCH   4  30
TORSDOF 8
ENDMDL
MODEL 6
REMARK VINA RESULT:    -7.040      2.433      4.213
REMARK INTER + INTRA:         -12.020
REMARK INTER:                 -10.263
REMARK INTRA:                  -1.757
REMARK UNBOUND:                -2.099
REMARK  8 active torsions:
REMARK  status: ('A' for Active; 'I' for Inactive)
REMARK    1  A    between atoms: C_6  and  N_7 
REMARK    2  A    between atoms: C_13  and  C_14 
REMARK    3  A    between atoms: C_15  and  O_16 
REMARK    4  A    between atoms: C_18  and  O_19 
REMARK    5  A    between atoms: C_21  and  C_22 
REMARK       I    between atoms: C_22  and  N_24 
REMARK    6  A    between atoms: N_24  and  C_26 
REMARK    7  A    between atoms: C_26  and  C_27 
REMARK    8  A    between atoms: C_27  and  C_28 
ROOT
HETATM    1  C   UNL     1       0.692   8.760  25.386  0.00  0.00     0.046 C 
HETATM    2  C   UNL     1       0.482   7.733  24.464  0.00  0.00     0.082 C 
HETATM    3  C   UNL     1       1.435   7.474  23.484  0.00  0.00     0.075 C 
HETATM    4  C   UNL     1       2.610   8.239  23.429  0.00  0.00     0.084 C 
HETATM    5  C   UNL     1       1.922   9.428  25.380  0.00  0.00     0.038 C 
HETATM    6  C   UNL     1       2.877   9.250  24.378  0.00  0.00     0.066 C 
ENDROOT
BRANCH   1   7
HETATM    7  C   UNL     1      -0.353   9.120  26.377  0.00  0.00     0.171 A 
HETATM    8  N   UNL     1      -1.219  10.195  26.314  0.00  0.00    -0.244 N 
HETATM    9  C   UNL     1      -1.862  10.183  27.541  0.00  0.00     0.349 A 
HETATM   10  O   UNL     1      -2.685  10.951  28.020  0.00  0.00    -0.245 OA
HETATM   11  N   UNL     1      -1.394   9.058  28.206  0.00  0.00    -0.226 N 
HETATM   12  H   UNL     1      -1.651   8.789  29.147  0.00  0.00     0.194 HD
HETATM   13  N   UNL     1      -0.452   8.412  27.475  0.00  0.00    -0.151 NA
BRANCH   8  14
HETATM   14  C   UNL     1      -1.476  11.164  25.293  0.00  0.00     0.045 C 
HETATM   15  C   UNL     1      -2.406  10.945  24.265  0.00  0.00     0.030 C 
HETATM   16  C   UNL     1      -2.474  11.785  23.146  0.00  0.00     0.002 C 
HETATM   17  C   UNL     1      -1.697  12.934  23.090  0.00  0.00     0.000 C 
HETATM   18  C   UNL     1      -0.871  13.250  24.161  0.00  0.00     0.002 C 
HETATM   19  C   UNL     1      -0.760  12.371  25.248  0.00  0.00     0.030 C 
ENDBRANCH   8  14
ENDBRANCH   1   7
BRANCH   2  20
HETATM   20  O   UNL     1      -0.634   6.941  24.463  0.00  0.00    -0.360 OA
HETATM   21  H   UNL     1      -0.606   6.370  23.664  0.00  0.00     0.217 HD
ENDBRANCH   2  20
BRANCH   6  22
HETATM   22  C   UNL     1       4.001  10.236  24.168  0.00  0.00     0.256 C 
HETATM   23  O   UNL     1       5.146   9.779  24.258  0.00  0.00    -0.267 OA
HETATM   24  N   UNL     1       3.834  11.597  23.826  0.00  0.00    -0.352 N 
HETATM   25  C   UNL     1       2.614  12.358  23.588  0.00  0.00     0.152 C 
BRANCH  24  26
HETATM   26  C   UNL     1       5.049  12.427  23.872  0.00  0.00     0.125 C 
BRANCH  26  27
HETATM   27  C   UNL     1       5.031  13.547  22.829  0.00  0.00     0.020 C 
BRANCH  27  28
HETATM   28  C   UNL     1       5.543  14.868  23.408  0.00  0.00    -0.003 C 
HETATM   29  C   UNL     1       4.399  15.837  23.672  0.00  0.00     0.005 C 
ENDBRANCH  27  28
ENDBRANCH  26  27
ENDBRANCH  24  26
ENDBRANCH   6  22
BRANCH   4  30
HETATM   30  O   UNL     1       3.510   7.954  22.439  0.00  0.00    -0.360 OA
HETATM   31  H   UNL     1       4.386   7.780  22.820  0.00  0.00     0.217 HD
ENDBRANCH   4  30
TORSDOF 8
ENDMDL
MODEL 7
REMARK VINA RESULT:    -6.884      5.409      9.698
REMARK INTER + INTRA:         -11.800
REMARK INTER:                  -9.983
REMARK INTRA:                  -1.816
REMARK UNBOUND:                -2.099
REMARK  8 active torsions:
REMARK  status: ('A' for Active; 'I' for Inactive)
REMARK    1  A    between atoms: C_6  and  N_7 
REMARK    2  A    between atoms: C_13  and  C_14 
REMARK    3  A    between atoms: C_15  and  O_16 
REMARK    4  A    between atoms: C_18  and  O_19 
REMARK    5  A    between atoms: C_21  and  C_22 
REMARK       I    between atoms: C_22  and  N_24 
REMARK    6  A    between atoms: N_24  and  C_26 
REMARK    7  A    between atoms: C_26  and  C_27 
REMARK    8  A    between atoms: C_27  and  C_28 
ROOT
HETATM    1  C   UNL     1       7.057  12.687  21.390  0.00  0.00     0.046 C 
HETATM    2  C   UNL     1       7.159  11.352  20.997  0.00  0.00     0.082 C 
HETATM    3  C   UNL     1       6.183  10.439  21.379  0.00  0.00     0.075 C 
HETATM    4  C   UNL     1       5.090  10.862  22.152  0.00  0.00     0.084 C 
HETATM    5  C   UNL     1       5.901  13.104  22.059  0.00  0.00     0.038 C 
HETATM    6  C   UNL     1       4.929  12.215  22.521  0.00  0.00     0.066 C 
ENDROOT
BRANCH   1   7
HETATM    7  C   UNL     1       8.136  13.658  21.078  0.00  0.00     0.171 A 
HETATM    8  N   UNL     1       8.961  14.299  21.984  0.00  0.00    -0.244 N 
HETATM    9  C   UNL     1       9.663  15.212  21.214  0.00  0.00     0.349 A 
HETATM   10  O   UNL     1      10.481  16.063  21.532  0.00  0.00    -0.245 OA
HETATM   11  N   UNL     1       9.266  14.989  19.902  0.00  0.00    -0.226 N 
HETATM   12  H   UNL     1       9.578  15.524  19.101  0.00  0.00     0.194 HD
HETATM   13  N   UNL     1       8.313  14.027  19.833  0.00  0.00    -0.151 NA
BRANCH   8  14
HETATM   14  C   UNL     1       9.135  14.152  23.396  0.00  0.00     0.045 C 
HETATM   15  C   UNL     1       8.395  14.897  24.327  0.00  0.00     0.030 C 
HETATM   16  C   UNL     1       8.738  14.924  25.684  0.00  0.00     0.002 C 
HETATM   17  C   UNL     1       9.755  14.109  26.162  0.00  0.00     0.000 C 
HETATM   18  C   UNL     1      10.409  13.253  25.285  0.00  0.00     0.002 C 
HETATM   19  C   UNL     1      10.105  13.280  23.917  0.00  0.00     0.030 C 
ENDBRANCH   8  14
ENDBRANCH   1   7
BRANCH   2  20
HETATM   20  O   UNL     1       8.190  10.869  20.236  0.00  0.00    -0.360 OA
HETATM   21  H   UNL     1       7.927   9.991  19.883  0.00  0.00     0.217 HD
ENDBRANCH   2  20
BRANCH   6  22
HETATM   22  C   UNL     1       3.910  12.622  23.558  0.00  0.00     0.256 C 
HETATM   23  O   UNL     1       2.733  12.644  23.181  0.00  0.00    -0.267 OA
HETATM   24  N   UNL     1       4.200  12.914  24.910  0.00  0.00    -0.352 N 
HETATM   25  C   UNL     1       5.472  12.890  25.621  0.00  0.00     0.152 C 
BRANCH  24  26
HETATM   26  C   UNL     1       3.094  13.488  25.696  0.00  0.00     0.125 C 
BRANCH  26  27
HETATM   27  C   UNL     1       2.679  14.873  25.191  0.00  0.00     0.020 C 
BRANCH  27  28
HETATM   28  C   UNL     1       3.836  15.872  25.262  0.00  0.00    -0.003 C 
HETATM   29  C   UNL     1       4.352  16.221  23.873  0.00  0.00     0.005 C 
ENDBRANCH  27  28
ENDBRANCH  26  27
ENDBRANCH  24  26
ENDBRANCH   6  22
BRANCH   4  30
HETATM   30  O   UNL     1       4.163   9.924  22.513  0.00  0.00    -0.360 OA
HETATM   31  H   UNL     1       3.951   9.351  21.758  0.00  0.00     0.217 HD
ENDBRANCH   4  30
TORSDOF 8
ENDMDL
MODEL 8
REMARK VINA RESULT:    -6.801      6.802     10.117
REMARK INTER + INTRA:         -11.683
REMARK INTER:                 -10.015
REMARK INTRA:                  -1.668
REMARK UNBOUND:                -2.099
REMARK  8 active torsions:
REMARK  status: ('A' for Active; 'I' for Inactive)
REMARK    1  A    between atoms: C_6  and  N_7 
REMARK    2  A    between atoms: C_13  and  C_14 
REMARK    3  A    between atoms: C_15  and  O_16 
REMARK    4  A    between atoms: C_18  and  O_19 
REMARK    5  A    between atoms: C_21  and  C_22 
REMARK       I    between atoms: C_22  and  N_24 
REMARK    6  A    between atoms: N_24  and  C_26 
REMARK    7  A    between atoms: C_26  and  C_27 
REMARK    8  A    between atoms: C_27  and  C_28 
ROOT
HETATM    1  C   UNL     1       8.101  12.657  22.726  0.00  0.00     0.046 C 
HETATM    2  C   UNL     1       8.597  12.974  21.460  0.00  0.00     0.082 C 
HETATM    3  C   UNL     1       8.135  12.288  20.342  0.00  0.00     0.075 C 
HETATM    4  C   UNL     1       7.163  11.285  20.487  0.00  0.00     0.084 C 
HETATM    5  C   UNL     1       7.052  11.737  22.827  0.00  0.00     0.038 C 
HETATM    6  C   UNL     1       6.603  10.977  21.745  0.00  0.00     0.066 C 
ENDROOT
BRANCH   1   7
HETATM    7  C   UNL     1       8.651  13.306  23.943  0.00  0.00     0.171 A 
HETATM    8  N   UNL     1       8.057  14.307  24.689  0.00  0.00    -0.244 N 
HETATM    9  C   UNL     1       9.034  14.676  25.598  0.00  0.00     0.349 A 
HETATM   10  O   UNL     1       9.043  15.554  26.451  0.00  0.00    -0.245 OA
HETATM   11  N   UNL     1      10.102  13.815  25.382  0.00  0.00    -0.226 N 
HETATM   12  H   UNL     1      10.988  13.852  25.869  0.00  0.00     0.194 HD
HETATM   13  N   UNL     1       9.853  12.975  24.346  0.00  0.00    -0.151 NA
BRANCH   8  14
HETATM   14  C   UNL     1       6.761  14.908  24.630  0.00  0.00     0.045 C 
HETATM   15  C   UNL     1       5.879  14.905  25.721  0.00  0.00     0.030 C 
HETATM   16  C   UNL     1       4.535  15.277  25.581  0.00  0.00     0.002 C 
HETATM   17  C   UNL     1       4.074  15.778  24.371  0.00  0.00     0.000 C 
HETATM   18  C   UNL     1       4.963  15.926  23.313  0.00  0.00     0.002 C 
HETATM   19  C   UNL     1       6.290  15.491  23.442  0.00  0.00     0.030 C 
ENDBRANCH   8  14
ENDBRANCH   1   7
BRANCH   2  20
HETATM   20  O   UNL     1       9.537  13.944  21.243  0.00  0.00    -0.360 OA
HETATM   21  H   UNL     1       9.970  13.766  20.379  0.00  0.00     0.217 HD
ENDBRANCH   2  20
BRANCH   6  22
HETATM   22  C   UNL     1       5.762   9.739  21.940  0.00  0.00     0.256 C 
HETATM   23  O   UNL     1       4.592   9.811  21.548  0.00  0.00    -0.267 OA
HETATM   24  N   UNL     1       6.229   8.516  22.473  0.00  0.00    -0.352 N 
HETATM   25  C   UNL     1       7.561   8.145  22.935  0.00  0.00     0.152 C 
BRANCH  24  26
HETATM   26  C   UNL     1       5.198   7.507  22.768  0.00  0.00     0.125 C 
BRANCH  26  27
HETATM   27  C   UNL     1       5.280   6.298  21.832  0.00  0.00     0.020 C 
BRANCH  27  28
HETATM   28  C   UNL     1       4.275   6.403  20.682  0.00  0.00    -0.003 C 
HETATM   29  C   UNL     1       4.932   6.943  19.420  0.00  0.00     0.005 C 
ENDBRANCH  27  28
ENDBRANCH  26  27
ENDBRANCH  24  26
ENDBRANCH   6  22
BRANCH   4  30
HETATM   30  O   UNL     1       6.750  10.631  19.358  0.00  0.00    -0.360 OA
HETATM   31  H   UNL     1       5.783  10.675  19.279  0.00  0.00     0.217 HD
ENDBRANCH   4  30
TORSDOF 8
ENDMDL
MODEL 9
REMARK VINA RESULT:    -6.715      4.799      9.778
REMARK INTER + INTRA:         -11.562
REMARK INTER:                  -9.463
REMARK INTRA:                  -2.099
REMARK UNBOUND:                -2.099
REMARK  8 active torsions:
REMARK  status: ('A' for Active; 'I' for Inactive)
REMARK    1  A    between atoms: C_6  and  N_7 
REMARK    2  A    between atoms: C_13  and  C_14 
REMARK    3  A    between atoms: C_15  and  O_16 
REMARK    4  A    between atoms: C_18  and  O_19 
REMARK    5  A    between atoms: C_21  and  C_22 
REMARK       I    between atoms: C_22  and  N_24 
REMARK    6  A    between atoms: N_24  and  C_26 
REMARK    7  A    between atoms: C_26  and  C_27 
REMARK    8  A    between atoms: C_27  and  C_28 
ROOT
HETATM    1  C   UNL     1       8.211  11.862  22.943  0.00  0.00     0.046 C 
HETATM    2  C   UNL     1       9.045  10.894  23.505  0.00  0.00     0.082 C 
HETATM    3  C   UNL     1       8.497   9.742  24.059  0.00  0.00     0.075 C 
HETATM    4  C   UNL     1       7.107   9.550  24.044  0.00  0.00     0.084 C 
HETATM    5  C   UNL     1       6.842  11.592  22.839  0.00  0.00     0.038 C 
HETATM    6  C   UNL     1       6.239  10.484  23.438  0.00  0.00     0.066 C 
ENDROOT
BRANCH   1   7
HETATM    7  C   UNL     1       8.765  13.143  22.436  0.00  0.00     0.171 A 
HETATM    8  N   UNL     1       8.250  14.409  22.646  0.00  0.00    -0.244 N 
HETATM    9  C   UNL     1       9.019  15.226  21.833  0.00  0.00     0.349 A 
HETATM   10  O   UNL     1       8.945  16.425  21.605  0.00  0.00    -0.245 OA
HETATM   11  N   UNL     1       9.983  14.401  21.268  0.00  0.00    -0.226 N 
HETATM   12  H   UNL     1      10.679  14.697  20.595  0.00  0.00     0.194 HD
HETATM   13  N   UNL     1       9.808  13.110  21.644  0.00  0.00    -0.151 NA
BRANCH   8  14
HETATM   14  C   UNL     1       7.182  14.888  23.468  0.00  0.00     0.045 C 
HETATM   15  C   UNL     1       7.213  14.801  24.869  0.00  0.00     0.030 C 
HETATM   16  C   UNL     1       6.073  15.046  25.645  0.00  0.00     0.002 C 
HETATM   17  C   UNL     1       4.908  15.505  25.045  0.00  0.00     0.000 C 
HETATM   18  C   UNL     1       4.894  15.737  23.676  0.00  0.00     0.002 C 
HETATM   19  C   UNL     1       6.018  15.427  22.897  0.00  0.00     0.030 C 
ENDBRANCH   8  14
ENDBRANCH   1   7
BRANCH   2  20
HETATM   20  O   UNL     1      10.408  11.009  23.545  0.00  0.00    -0.360 OA
HETATM   21  H   UNL     1      10.634  11.800  24.083  0.00  0.00     0.217 HD
ENDBRANCH   2  20
BRANCH   6  22
HETATM   22  C   UNL     1       4.746  10.411  23.650  0.00  0.00     0.256 C 
HETATM   23  O   UNL     1       4.115   9.740  22.826  0.00  0.00    -0.267 OA
HETATM   24  N   UNL     1       4.050  10.994  24.732  0.00  0.00    -0.352 N 
HETATM   25  C   UNL     1       4.554  11.761  25.865  0.00  0.00     0.152 C 
BRANCH  24  26
HETATM   26  C   UNL     1       2.580  10.979  24.636  0.00  0.00     0.125 C 
BRANCH  26  27
HETATM   27  C   UNL     1       1.969  12.371  24.814  0.00  0.00     0.020 C 
BRANCH  27  28
HETATM   28  C   UNL     1       2.102  13.214  23.543  0.00  0.00    -0.003 C 
HETATM   29  C   UNL     1       1.263  14.481  23.629  0.00  0.00     0.005 C 
ENDBRANCH  27  28
ENDBRANCH  26  27
ENDBRANCH  24  26
ENDBRANCH   6  22
BRANCH   4  30
HETATM   30  O   UNL     1       6.615   8.407  24.613  0.00  0.00    -0.360 OA
HETATM   31  H   UNL     1       5.649   8.461  24.697  0.00  0.00     0.217 HD
ENDBRANCH   4  30
TORSDOF 8
ENDMDL
