MODEL 1
REMARK VINA RESULT:    -7.603      0.000      0.000
REMARK INTER + INTRA:         -10.938
REMARK INTER:                  -9.637
REMARK INTRA:                  -1.301
REMARK UNBOUND:                -1.113
REMARK  5 active torsions:
REMARK  status: ('A' for Active; 'I' for Inactive)
REMARK    1  A    between atoms: N8_1  and  C24_2 
REMARK    2  A    between atoms: N8_1  and  C7_8 
REMARK    3  A    between atoms: C2_13  and  N1_14 
REMARK    4  A    between atoms: N1_14  and  C17_15 
REMARK    5  A    between atoms: C14_16  and  C13_19 
ROOT
ATOM      1  C17 FTA A   1       1.651   9.236  24.281  1.00  0.00     0.142 C 
ATOM      2  C14 FTA A   1       2.798   9.915  24.079  1.00  0.00     0.158 C 
ATOM      3  C18 FTA A   1       2.964  11.242  24.631  1.00  0.00     0.069 C 
ATOM      4  N21 FTA A   1       2.935  12.323  25.086  1.00  0.00    -0.197 NA
ENDROOT
BRANCH   2   5
ATOM      5  C13 FTA A   1       3.890   9.286  23.302  1.00  0.00     0.197 A 
ATOM      6  N15 FTA A   1       5.051   9.915  22.857  1.00  0.00    -0.093 NA
ATOM      7  N19 FTA A   1       5.780   8.982  22.132  1.00  0.00    -0.231 N 
ATOM      8  N20 FTA A   1       5.089   7.779  22.113  1.00  0.00    -0.017 NA
ATOM      9  H15 FTA A   1       6.689   9.155  21.678  1.00  0.00     0.200 HD
ATOM     10  N16 FTA A   1       3.922   7.962  22.848  1.00  0.00    -0.090 NA
ENDBRANCH   2   5
BRANCH   1  11
ATOM     11  N1  FTA A   1       0.996   8.732  23.217  1.00  0.00    -0.389 N 
ATOM     12  H11 FTA A   1       0.947   7.707  23.130  1.00  0.00     0.159 HD
BRANCH  11  13
ATOM     13  C2  FTA A   1       0.367   9.508  22.206  1.00  0.00     0.028 A 
ATOM     14  C4  FTA A   1       0.626   9.312  20.852  1.00  0.00     0.031 A 
ATOM     15  C6  FTA A   1       0.156  10.253  19.926  1.00  0.00     0.031 A 
ATOM     16  C7  FTA A   1      -0.562  11.381  20.317  1.00  0.00     0.032 A 
ATOM     17  C5  FTA A   1      -0.833  11.548  21.663  1.00  0.00     0.031 A 
ATOM     18  C3  FTA A   1      -0.364  10.633  22.598  1.00  0.00     0.031 A 
BRANCH  16  19
ATOM     19  N8  FTA A   1      -0.864  12.446  19.430  1.00  0.00    -0.356 N 
ATOM     20  H1  FTA A   1      -1.859  12.639  19.247  1.00  0.00     0.166 HD
BRANCH  19  21
ATOM     21  C24 FTA A   1       0.096  13.272  18.772  1.00  0.00     0.032 A 
ATOM     22  C26 FTA A   1       1.135  13.855  19.458  1.00  0.00     0.029 A 
ATOM     23  C28 FTA A   1       1.927  14.778  18.800  1.00  0.00     0.002 A 
ATOM     24  C30 FTA A   1       1.731  15.112  17.471  1.00  0.00     0.000 A 
ATOM     25  C29 FTA A   1       0.723  14.509  16.766  1.00  0.00     0.002 A 
ATOM     26  C27 FTA A   1      -0.082  13.576  17.430  1.00  0.00     0.029 A 
ENDBRANCH  19  21
ENDBRANCH  16  19
ENDBRANCH  11  13
ENDBRANCH   1  11
TORSDOF 5
ENDMDL
MODEL 2
REMARK VINA RESULT:    -7.221      3.304      7.427
REMARK INTER + INTRA:         -10.445
REMARK INTER:                  -9.650
REMARK INTRA:                  -0.794
REMARK UNBOUND:                -1.113
REMARK  5 active torsions:
REMARK  status: ('A' for Active; 'I' for Inactive)
REMARK    1  A    between atoms: N8_1  and  C24_2 
REMARK    2  A    between atoms: N8_1  and  C7_8 
REMARK    3  A    between atoms: C2_13  and  N1_14 
REMARK    4  A    between atoms: N1_14  and  C17_15 
REMARK    5  A    between atoms: C14_16  and  C13_19 
ROOT
ATOM      1  C17 FTA A   1       0.500  10.139  21.750  1.00  0.00     0.142 C 
ATOM      2  C14 FTA A   1       0.241  11.377  21.283  1.00  0.00     0.158 C 
ATOM      3  C18 FTA A   1       0.789  11.805  20.013  1.00  0.00     0.069 C 
ATOM      4  N21 FTA A   1       1.343  12.033  19.006  1.00  0.00    -0.197 NA
ENDROOT
BRANCH   2   5
ATOM      5  C13 FTA A   1      -0.620  12.287  22.071  1.00  0.00     0.197 A 
ATOM      6  N15 FTA A   1      -1.346  11.950  23.212  1.00  0.00    -0.093 NA
ATOM      7  N19 FTA A   1      -2.051  13.079  23.608  1.00  0.00    -0.231 N 
ATOM      8  N20 FTA A   1      -1.777  14.117  22.729  1.00  0.00    -0.017 NA
ATOM      9  H15 FTA A   1      -2.677  13.137  24.424  1.00  0.00     0.200 HD
ATOM     10  N16 FTA A   1      -0.882  13.631  21.782  1.00  0.00    -0.090 NA
ENDBRANCH   2   5
BRANCH   1  11
ATOM     11  N1  FTA A   1       0.998  10.003  22.994  1.00  0.00    -0.389 N 
ATOM     12  H11 FTA A   1       0.549   9.314  23.614  1.00  0.00     0.159 HD
BRANCH  11  13
ATOM     13  C2  FTA A   1       2.097  10.738  23.516  1.00  0.00     0.028 A 
ATOM     14  C4  FTA A   1       3.418  10.362  23.285  1.00  0.00     0.031 A 
ATOM     15  C6  FTA A   1       4.440  10.987  24.012  1.00  0.00     0.031 A 
ATOM     16  C7  FTA A   1       4.178  11.970  24.962  1.00  0.00     0.032 A 
ATOM     17  C5  FTA A   1       2.863  12.351  25.162  1.00  0.00     0.031 A 
ATOM     18  C3  FTA A   1       1.834  11.734  24.461  1.00  0.00     0.031 A 
BRANCH  16  19
ATOM     19  N8  FTA A   1       5.166  12.463  25.852  1.00  0.00    -0.356 N 
ATOM     20  H1  FTA A   1       4.838  12.896  26.728  1.00  0.00     0.166 HD
BRANCH  19  21
ATOM     21  C24 FTA A   1       6.576  12.409  25.635  1.00  0.00     0.032 A 
ATOM     22  C26 FTA A   1       7.153  12.959  24.515  1.00  0.00     0.029 A 
ATOM     23  C28 FTA A   1       8.494  12.724  24.278  1.00  0.00     0.002 A 
ATOM     24  C30 FTA A   1       9.282  11.982  25.142  1.00  0.00     0.000 A 
ATOM     25  C29 FTA A   1       8.727  11.461  26.280  1.00  0.00     0.002 A 
ATOM     26  C27 FTA A   1       7.369  11.695  26.521  1.00  0.00     0.029 A 
ENDBRANCH  19  21
ENDBRANCH  16  19
ENDBRANCH  11  13
ENDBRANCH   1  11
TORSDOF 5
ENDMDL
MODEL 3
REMARK VINA RESULT:    -7.104      1.009      1.549
REMARK INTER + INTRA:         -10.293
REMARK INTER:                  -9.158
REMARK INTRA:                  -1.135
REMARK UNBOUND:                -1.113
REMARK  5 active torsions:
REMARK  status: ('A' for Active; 'I' for Inactive)
REMARK    1  A    between atoms: N8_1  and  C24_2 
REMARK    2  A    between atoms: N8_1  and  C7_8 
REMARK    3  A    between atoms: C2_13  and  N1_14 
REMARK    4  A    between atoms: N1_14  and  C17_15 
REMARK    5  A    between atoms: C14_16  and  C13_19 
ROOT
ATOM      1  C17 FTA A   1       1.383   9.990  24.080  1.00  0.00     0.142 C 
ATOM      2  C14 FTA A   1       2.695  10.297  24.115  1.00  0.00     0.158 C 
ATOM      3  C18 FTA A   1       3.159  11.417  24.904  1.00  0.00     0.069 C 
ATOM      4  N21 FTA A   1       3.381  12.380  25.536  1.00  0.00    -0.197 NA
ENDROOT
BRANCH   2   5
ATOM      5  C13 FTA A   1       3.657   9.468  23.353  1.00  0.00     0.197 A 
ATOM      6  N15 FTA A   1       4.921   9.864  22.921  1.00  0.00    -0.093 NA
ATOM      7  N19 FTA A   1       5.468   8.806  22.207  1.00  0.00    -0.231 N 
ATOM      8  N20 FTA A   1       4.563   7.756  22.183  1.00  0.00    -0.017 NA
ATOM      9  H15 FTA A   1       6.399   8.802  21.764  1.00  0.00     0.200 HD
ATOM     10  N16 FTA A   1       3.443   8.160  22.902  1.00  0.00    -0.090 NA
ENDBRANCH   2   5
BRANCH   1  11
ATOM     11  N1  FTA A   1       0.774   9.867  22.885  1.00  0.00    -0.389 N 
ATOM     12  H11 FTA A   1       0.353   8.954  22.657  1.00  0.00     0.159 HD
BRANCH  11  13
ATOM     13  C2  FTA A   1       0.668  10.900  21.914  1.00  0.00     0.028 A 
ATOM     14  C4  FTA A   1      -0.211  11.970  22.063  1.00  0.00     0.031 A 
ATOM     15  C6  FTA A   1      -0.434  12.823  20.974  1.00  0.00     0.031 A 
ATOM     16  C7  FTA A   1       0.193  12.634  19.745  1.00  0.00     0.032 A 
ATOM     17  C5  FTA A   1       1.082  11.582  19.621  1.00  0.00     0.031 A 
ATOM     18  C3  FTA A   1       1.307  10.716  20.684  1.00  0.00     0.031 A 
BRANCH  16  19
ATOM     19  N8  FTA A   1      -0.172  13.351  18.576  1.00  0.00    -0.356 N 
ATOM     20  H1  FTA A   1      -1.143  13.252  18.246  1.00  0.00     0.166 HD
BRANCH  19  21
ATOM     21  C24 FTA A   1       0.695  14.197  17.821  1.00  0.00     0.032 A 
ATOM     22  C26 FTA A   1       1.758  14.845  18.405  1.00  0.00     0.029 A 
ATOM     23  C28 FTA A   1       2.452  15.781  17.662  1.00  0.00     0.002 A 
ATOM     24  C30 FTA A   1       2.136  16.066  16.344  1.00  0.00     0.000 A 
ATOM     25  C29 FTA A   1       1.104  15.400  15.740  1.00  0.00     0.002 A 
ATOM     26  C27 FTA A   1       0.397  14.454  16.491  1.00  0.00     0.029 A 
ENDBRANCH  19  21
ENDBRANCH  16  19
ENDBRANCH  11  13
ENDBRANCH   1  11
TORSDOF 5
ENDMDL
MODEL 4
REMARK VINA RESULT:    -6.960      2.712      7.671
REMARK INTER + INTRA:         -10.108
REMARK INTER:                  -9.116
REMARK INTRA:                  -0.992
REMARK UNBOUND:                -1.113
REMARK  5 active torsions:
REMARK  status: ('A' for Active; 'I' for Inactive)
REMARK    1  A    between atoms: N8_1  and  C24_2 
REMARK    2  A    between atoms: N8_1  and  C7_8 
REMARK    3  A    between atoms: C2_13  and  N1_14 
REMARK    4  A    between atoms: N1_14  and  C17_15 
REMARK    5  A    between atoms: C14_16  and  C13_19 
ROOT
ATOM      1  C17 FTA A   1       1.460  14.063  18.641  1.00  0.00     0.142 C 
ATOM      2  C14 FTA A   1       1.554  15.014  17.691  1.00  0.00     0.158 C 
ATOM      3  C18 FTA A   1       2.567  16.044  17.791  1.00  0.00     0.069 C 
ATOM      4  N21 FTA A   1       3.392  16.842  18.030  1.00  0.00    -0.197 NA
ENDROOT
BRANCH   2   5
ATOM      5  C13 FTA A   1       0.625  14.988  16.539  1.00  0.00     0.197 A 
ATOM      6  N15 FTA A   1       0.006  13.858  16.007  1.00  0.00    -0.093 NA
ATOM      7  N19 FTA A   1      -0.743  14.269  14.912  1.00  0.00    -0.231 N 
ATOM      8  N20 FTA A   1      -0.599  15.639  14.749  1.00  0.00    -0.017 NA
ATOM      9  H15 FTA A   1      -1.314  13.654  14.315  1.00  0.00     0.200 HD
ATOM     10  N16 FTA A   1       0.240  16.088  15.764  1.00  0.00    -0.090 NA
ENDBRANCH   2   5
BRANCH   1  11
ATOM     11  N1  FTA A   1       0.269  13.851  19.234  1.00  0.00    -0.389 N 
ATOM     12  H11 FTA A   1      -0.456  14.573  19.118  1.00  0.00     0.159 HD
BRANCH  11  13
ATOM     13  C2  FTA A   1      -0.063  12.706  20.010  1.00  0.00     0.028 A 
ATOM     14  C4  FTA A   1      -0.473  12.804  21.337  1.00  0.00     0.031 A 
ATOM     15  C6  FTA A   1      -0.561  11.637  22.109  1.00  0.00     0.031 A 
ATOM     16  C7  FTA A   1      -0.249  10.383  21.592  1.00  0.00     0.032 A 
ATOM     17  C5  FTA A   1       0.133  10.300  20.265  1.00  0.00     0.031 A 
ATOM     18  C3  FTA A   1       0.239  11.446  19.487  1.00  0.00     0.031 A 
BRANCH  16  19
ATOM     19  N8  FTA A   1      -0.129   9.225  22.402  1.00  0.00    -0.356 N 
ATOM     20  H1  FTA A   1      -0.999   8.742  22.668  1.00  0.00     0.166 HD
BRANCH  19  21
ATOM     21  C24 FTA A   1       1.099   8.674  22.879  1.00  0.00     0.032 A 
ATOM     22  C26 FTA A   1       1.708   9.148  24.017  1.00  0.00     0.029 A 
ATOM     23  C28 FTA A   1       2.975   8.693  24.328  1.00  0.00     0.002 A 
ATOM     24  C30 FTA A   1       3.638   7.755  23.556  1.00  0.00     0.000 A 
ATOM     25  C29 FTA A   1       3.027   7.246  22.441  1.00  0.00     0.002 A 
ATOM     26  C27 FTA A   1       1.745   7.708  22.121  1.00  0.00     0.029 A 
ENDBRANCH  19  21
ENDBRANCH  16  19
ENDBRANCH  11  13
ENDBRANCH   1  11
TORSDOF 5
ENDMDL
MODEL 5
REMARK VINA RESULT:    -6.675      3.282      8.020
REMARK INTER + INTRA:          -9.739
REMARK INTER:                  -8.867
REMARK INTRA:                  -0.872
REMARK UNBOUND:                -1.113
REMARK  5 active torsions:
REMARK  status: ('A' for Active; 'I' for Inactive)
REMARK    1  A    between atoms: N8_1  and  C24_2 
REMARK    2  A    between atoms: N8_1  and  C7_8 
REMARK    3  A    between atoms: C2_13  and  N1_14 
REMARK    4  A    between atoms: N1_14  and  C17_15 
REMARK    5  A    between atoms: C14_16  and  C13_19 
ROOT
ATOM      1  C17 FTA A   1       0.974  14.678  17.229  1.00  0.00     0.142 C 
ATOM      2  C14 FTA A   1       0.814  15.291  16.040  1.00  0.00     0.158 C 
ATOM      3  C18 FTA A   1       0.728  16.734  15.971  1.00  0.00     0.069 C 
ATOM      4  N21 FTA A   1       0.617  17.897  16.073  1.00  0.00    -0.197 NA
ENDROOT
BRANCH   2   5
ATOM      5  C13 FTA A   1       0.744  14.477  14.804  1.00  0.00     0.197 A 
ATOM      6  N15 FTA A   1       1.781  14.266  13.898  1.00  0.00    -0.093 NA
ATOM      7  N19 FTA A   1       1.280  13.487  12.864  1.00  0.00    -0.231 N 
ATOM      8  N20 FTA A   1      -0.057  13.209  13.109  1.00  0.00    -0.017 NA
ATOM      9  H15 FTA A   1       1.816  13.165  12.045  1.00  0.00     0.200 HD
ATOM     10  N16 FTA A   1      -0.388  13.813  14.318  1.00  0.00    -0.090 NA
ENDBRANCH   2   5
BRANCH   1  11
ATOM     11  N1  FTA A   1       0.118  13.698  17.577  1.00  0.00    -0.389 N 
ATOM     12  H11 FTA A   1      -0.675  13.512  16.945  1.00  0.00     0.159 HD
BRANCH  11  13
ATOM     13  C2  FTA A   1       0.224  12.900  18.749  1.00  0.00     0.028 A 
ATOM     14  C4  FTA A   1       1.426  12.318  19.142  1.00  0.00     0.031 A 
ATOM     15  C6  FTA A   1       1.415  11.362  20.168  1.00  0.00     0.031 A 
ATOM     16  C7  FTA A   1       0.240  10.975  20.806  1.00  0.00     0.032 A 
ATOM     17  C5  FTA A   1      -0.943  11.581  20.420  1.00  0.00     0.031 A 
ATOM     18  C3  FTA A   1      -0.955  12.520  19.397  1.00  0.00     0.031 A 
BRANCH  16  19
ATOM     19  N8  FTA A   1       0.174   9.869  21.692  1.00  0.00    -0.356 N 
ATOM     20  H1  FTA A   1      -0.760   9.583  22.021  1.00  0.00     0.166 HD
BRANCH  19  21
ATOM     21  C24 FTA A   1       1.294   9.121  22.165  1.00  0.00     0.032 A 
ATOM     22  C26 FTA A   1       1.945   9.456  23.328  1.00  0.00     0.029 A 
ATOM     23  C28 FTA A   1       3.122   8.802  23.640  1.00  0.00     0.002 A 
ATOM     24  C30 FTA A   1       3.650   7.802  22.841  1.00  0.00     0.000 A 
ATOM     25  C29 FTA A   1       2.991   7.433  21.699  1.00  0.00     0.002 A 
ATOM     26  C27 FTA A   1       1.801   8.096  21.379  1.00  0.00     0.029 A 
ENDBRANCH  19  21
ENDBRANCH  16  19
ENDBRANCH  11  13
ENDBRANCH   1  11
TORSDOF 5
ENDMDL
MODEL 6
REMARK VINA RESULT:    -6.605      1.622      2.569
REMARK INTER + INTRA:          -9.648
REMARK INTER:                  -8.726
REMARK INTRA:                  -0.922
REMARK UNBOUND:                -1.113
REMARK  5 active torsions:
REMARK  status: ('A' for Active; 'I' for Inactive)
REMARK    1  A    between atoms: N8_1  and  C24_2 
REMARK    2  A    between atoms: N8_1  and  C7_8 
REMARK    3  A    between atoms: C2_13  and  N1_14 
REMARK    4  A    between atoms: N1_14  and  C17_15 
REMARK    5  A    between atoms: C14_16  and  C13_19 
ROOT
ATOM      1  C17 FTA A   1       0.126  10.047  22.955  1.00  0.00     0.142 C 
ATOM      2  C14 FTA A   1       1.469  10.012  23.070  1.00  0.00     0.158 C 
ATOM      3  C18 FTA A   1       2.153  10.983  23.897  1.00  0.00     0.069 C 
ATOM      4  N21 FTA A   1       2.573  11.861  24.551  1.00  0.00    -0.197 NA
ENDROOT
BRANCH   2   5
ATOM      5  C13 FTA A   1       2.234   8.964  22.357  1.00  0.00     0.197 A 
ATOM      6  N15 FTA A   1       1.741   8.114  21.369  1.00  0.00    -0.093 NA
ATOM      7  N19 FTA A   1       2.772   7.258  21.003  1.00  0.00    -0.231 N 
ATOM      8  N20 FTA A   1       3.901   7.559  21.749  1.00  0.00    -0.017 NA
ATOM      9  H15 FTA A   1       2.707   6.517  20.290  1.00  0.00     0.200 HD
ATOM     10  N16 FTA A   1       3.574   8.624  22.582  1.00  0.00    -0.090 NA
ENDBRANCH   2   5
BRANCH   1  11
ATOM     11  N1  FTA A   1      -0.421  10.076  21.724  1.00  0.00    -0.389 N 
ATOM     12  H11 FTA A   1      -1.049   9.301  21.465  1.00  0.00     0.159 HD
BRANCH  11  13
ATOM     13  C2  FTA A   1      -0.198  11.093  20.756  1.00  0.00     0.028 A 
ATOM     14  C4  FTA A   1       0.459  10.841  19.555  1.00  0.00     0.031 A 
ATOM     15  C6  FTA A   1       0.850  11.923  18.754  1.00  0.00     0.031 A 
ATOM     16  C7  FTA A   1       0.604  13.243  19.122  1.00  0.00     0.032 A 
ATOM     17  C5  FTA A   1      -0.072  13.475  20.307  1.00  0.00     0.031 A 
ATOM     18  C3  FTA A   1      -0.456  12.417  21.121  1.00  0.00     0.031 A 
BRANCH  16  19
ATOM     19  N8  FTA A   1       1.168  14.350  18.439  1.00  0.00    -0.356 N 
ATOM     20  H1  FTA A   1       1.794  14.968  18.977  1.00  0.00     0.166 HD
BRANCH  19  21
ATOM     21  C24 FTA A   1       0.942  14.680  17.068  1.00  0.00     0.032 A 
ATOM     22  C26 FTA A   1       0.085  13.945  16.283  1.00  0.00     0.029 A 
ATOM     23  C28 FTA A   1       0.041  14.207  14.927  1.00  0.00     0.002 A 
ATOM     24  C30 FTA A   1       0.803  15.201  14.337  1.00  0.00     0.000 A 
ATOM     25  C29 FTA A   1       1.632  15.965  15.115  1.00  0.00     0.002 A 
ATOM     26  C27 FTA A   1       1.681  15.700  16.488  1.00  0.00     0.029 A 
ENDBRANCH  19  21
ENDBRANCH  16  19
ENDBRANCH  11  13
ENDBRANCH   1  11
TORSDOF 5
ENDMDL
MODEL 7
REMARK VINA RESULT:    -6.601      1.315      2.251
REMARK INTER + INTRA:          -9.644
REMARK INTER:                  -8.531
REMARK INTRA:                  -1.113
REMARK UNBOUND:                -1.113
REMARK  5 active torsions:
REMARK  status: ('A' for Active; 'I' for Inactive)
REMARK    1  A    between atoms: N8_1  and  C24_2 
REMARK    2  A    between atoms: N8_1  and  C7_8 
REMARK    3  A    between atoms: C2_13  and  N1_14 
REMARK    4  A    between atoms: N1_14  and  C17_15 
REMARK    5  A    between atoms: C14_16  and  C13_19 
ROOT
ATOM      1  C17 FTA A   1       2.280   7.688  22.275  1.00  0.00     0.142 C 
ATOM      2  C14 FTA A   1       3.519   7.685  22.806  1.00  0.00     0.158 C 
ATOM      3  C18 FTA A   1       4.105   6.449  23.278  1.00  0.00     0.069 C 
ATOM      4  N21 FTA A   1       4.427   5.392  23.669  1.00  0.00    -0.197 NA
ENDROOT
BRANCH   2   5
ATOM      5  C13 FTA A   1       4.280   8.953  22.886  1.00  0.00     0.197 A 
ATOM      6  N15 FTA A   1       5.553   9.182  22.368  1.00  0.00    -0.093 NA
ATOM      7  N19 FTA A   1       5.911  10.481  22.702  1.00  0.00    -0.231 N 
ATOM      8  N20 FTA A   1       4.881  11.067  23.423  1.00  0.00    -0.017 NA
ATOM      9  H15 FTA A   1       6.801  10.938  22.453  1.00  0.00     0.200 HD
ATOM     10  N16 FTA A   1       3.864  10.124  23.529  1.00  0.00    -0.090 NA
ENDBRANCH   2   5
BRANCH   1  11
ATOM     11  N1  FTA A   1       1.363   8.544  22.766  1.00  0.00    -0.389 N 
ATOM     12  H11 FTA A   1       1.182   8.518  23.780  1.00  0.00     0.159 HD
BRANCH  11  13
ATOM     13  C2  FTA A   1       0.628   9.483  21.992  1.00  0.00     0.028 A 
ATOM     14  C4  FTA A   1       0.279   9.238  20.666  1.00  0.00     0.031 A 
ATOM     15  C6  FTA A   1      -0.238  10.288  19.894  1.00  0.00     0.031 A 
ATOM     16  C7  FTA A   1      -0.413  11.569  20.410  1.00  0.00     0.032 A 
ATOM     17  C5  FTA A   1      -0.085  11.789  21.736  1.00  0.00     0.031 A 
ATOM     18  C3  FTA A   1       0.441  10.766  22.514  1.00  0.00     0.031 A 
BRANCH  16  19
ATOM     19  N8  FTA A   1      -0.733  12.688  19.599  1.00  0.00    -0.356 N 
ATOM     20  H1  FTA A   1      -1.721  12.979  19.565  1.00  0.00     0.166 HD
BRANCH  19  21
ATOM     21  C24 FTA A   1       0.200  13.443  18.827  1.00  0.00     0.032 A 
ATOM     22  C26 FTA A   1       1.274  14.074  19.410  1.00  0.00     0.029 A 
ATOM     23  C28 FTA A   1       2.038  14.929  18.638  1.00  0.00     0.002 A 
ATOM     24  C30 FTA A   1       1.782  15.147  17.295  1.00  0.00     0.000 A 
ATOM     25  C29 FTA A   1       0.738  14.495  16.694  1.00  0.00     0.002 A 
ATOM     26  C27 FTA A   1      -0.040  13.632  17.474  1.00  0.00     0.029 A 
ENDBRANCH  19  21
ENDBRANCH  16  19
ENDBRANCH  11  13
ENDBRANCH   1  11
TORSDOF 5
ENDMDL
MODEL 8
REMARK VINA RESULT:    -6.564      3.578      5.831
REMARK INTER + INTRA:          -9.596
REMARK INTER:                  -8.887
REMARK INTRA:                  -0.709
REMARK UNBOUND:                -1.113
REMARK  5 active torsions:
REMARK  status: ('A' for Active; 'I' for Inactive)
REMARK    1  A    between atoms: N8_1  and  C24_2 
REMARK    2  A    between atoms: N8_1  and  C7_8 
REMARK    3  A    between atoms: C2_13  and  N1_14 
REMARK    4  A    between atoms: N1_14  and  C17_15 
REMARK    5  A    between atoms: C14_16  and  C13_19 
ROOT
ATOM      1  C17 FTA A   1       6.616  12.385  23.778  1.00  0.00     0.142 C 
ATOM      2  C14 FTA A   1       7.716  12.806  24.433  1.00  0.00     0.158 C 
ATOM      3  C18 FTA A   1       8.335  14.066  24.081  1.00  0.00     0.069 C 
ATOM      4  N21 FTA A   1       8.759  15.072  23.652  1.00  0.00    -0.197 NA
ENDROOT
BRANCH   2   5
ATOM      5  C13 FTA A   1       8.276  11.976  25.524  1.00  0.00     0.197 A 
ATOM      6  N15 FTA A   1       9.509  11.327  25.514  1.00  0.00    -0.093 NA
ATOM      7  N19 FTA A   1       9.622  10.626  26.707  1.00  0.00    -0.231 N 
ATOM      8  N20 FTA A   1       8.476  10.825  27.463  1.00  0.00    -0.017 NA
ATOM      9  H15 FTA A   1      10.429  10.049  26.987  1.00  0.00     0.200 HD
ATOM     10  N16 FTA A   1       7.644  11.671  26.735  1.00  0.00    -0.090 NA
ENDBRANCH   2   5
BRANCH   1  11
ATOM     11  N1  FTA A   1       6.612  11.153  23.235  1.00  0.00    -0.389 N 
ATOM     12  H11 FTA A   1       7.487  10.820  22.804  1.00  0.00     0.159 HD
BRANCH  11  13
ATOM     13  C2  FTA A   1       5.494  10.275  23.213  1.00  0.00     0.028 A 
ATOM     14  C4  FTA A   1       5.540   9.032  22.586  1.00  0.00     0.031 A 
ATOM     15  C6  FTA A   1       4.347   8.321  22.399  1.00  0.00     0.031 A 
ATOM     16  C7  FTA A   1       3.115   8.818  22.818  1.00  0.00     0.032 A 
ATOM     17  C5  FTA A   1       3.090  10.042  23.461  1.00  0.00     0.031 A 
ATOM     18  C3  FTA A   1       4.260  10.770  23.644  1.00  0.00     0.031 A 
BRANCH  16  19
ATOM     19  N8  FTA A   1       1.881   8.220  22.457  1.00  0.00    -0.356 N 
ATOM     20  H1  FTA A   1       1.770   7.213  22.648  1.00  0.00     0.166 HD
BRANCH  19  21
ATOM     21  C24 FTA A   1       0.780   8.897  21.851  1.00  0.00     0.032 A 
ATOM     22  C26 FTA A   1       0.660   9.000  20.486  1.00  0.00     0.029 A 
ATOM     23  C28 FTA A   1      -0.330   9.813  19.967  1.00  0.00     0.002 A 
ATOM     24  C30 FTA A   1      -1.223  10.501  20.770  1.00  0.00     0.000 A 
ATOM     25  C29 FTA A   1      -1.138  10.376  22.132  1.00  0.00     0.002 A 
ATOM     26  C27 FTA A   1      -0.134   9.557  22.660  1.00  0.00     0.029 A 
ENDBRANCH  19  21
ENDBRANCH  16  19
ENDBRANCH  11  13
ENDBRANCH   1  11
TORSDOF 5
ENDMDL
MODEL 9
REMARK VINA RESULT:    -6.523      3.081      7.926
REMARK INTER + INTRA:          -9.543
REMARK INTER:                  -8.719
REMARK INTRA:                  -0.824
REMARK UNBOUND:                -1.113
REMARK  5 active torsions:
REMARK  status: ('A' for Active; 'I' for Inactive)
REMARK    1  A    between atoms: N8_1  and  C24_2 
REMARK    2  A    between atoms: N8_1  and  C7_8 
REMARK    3  A    between atoms: C2_13  and  N1_14 
REMARK    4  A    between atoms: N1_14  and  C17_15 
REMARK    5  A    between atoms: C14_16  and  C13_19 
ROOT
ATOM      1  C17 FTA A   1      -0.069  13.936  17.285  1.00  0.00     0.142 C 
ATOM      2  C14 FTA A   1       0.561  14.555  16.267  1.00  0.00     0.158 C 
ATOM      3  C18 FTA A   1       0.435  14.048  14.917  1.00  0.00     0.069 C 
ATOM      4  N21 FTA A   1       0.289  13.496  13.893  1.00  0.00    -0.197 NA
ENDROOT
BRANCH   2   5
ATOM      5  C13 FTA A   1       1.370  15.765  16.539  1.00  0.00     0.197 A 
ATOM      6  N15 FTA A   1       2.427  15.862  17.442  1.00  0.00    -0.093 NA
ATOM      7  N19 FTA A   1       2.875  17.176  17.421  1.00  0.00    -0.231 N 
ATOM      8  N20 FTA A   1       2.112  17.903  16.519  1.00  0.00    -0.017 NA
ATOM      9  H15 FTA A   1       3.651  17.552  17.986  1.00  0.00     0.200 HD
ATOM     10  N16 FTA A   1       1.185  17.027  15.963  1.00  0.00    -0.090 NA
ENDBRANCH   2   5
BRANCH   1  11
ATOM     11  N1  FTA A   1       0.646  13.569  18.366  1.00  0.00    -0.389 N 
ATOM     12  H11 FTA A   1       1.569  14.007  18.498  1.00  0.00     0.159 HD
BRANCH  11  13
ATOM     13  C2  FTA A   1       0.223  12.624  19.340  1.00  0.00     0.028 A 
ATOM     14  C4  FTA A   1      -0.098  12.995  20.643  1.00  0.00     0.031 A 
ATOM     15  C6  FTA A   1      -0.282  11.997  21.609  1.00  0.00     0.031 A 
ATOM     16  C7  FTA A   1      -0.152  10.643  21.309  1.00  0.00     0.032 A 
ATOM     17  C5  FTA A   1       0.143  10.290  20.004  1.00  0.00     0.031 A 
ATOM     18  C3  FTA A   1       0.342  11.265  19.035  1.00  0.00     0.031 A 
BRANCH  16  19
ATOM     19  N8  FTA A   1      -0.126   9.633  22.304  1.00  0.00    -0.356 N 
ATOM     20  H1  FTA A   1      -1.030   9.331  22.694  1.00  0.00     0.166 HD
BRANCH  19  21
ATOM     21  C24 FTA A   1       1.050   9.002  22.811  1.00  0.00     0.032 A 
ATOM     22  C26 FTA A   1       1.644   9.415  23.980  1.00  0.00     0.029 A 
ATOM     23  C28 FTA A   1       2.871   8.881  24.325  1.00  0.00     0.002 A 
ATOM     24  C30 FTA A   1       3.507   7.923  23.553  1.00  0.00     0.000 A 
ATOM     25  C29 FTA A   1       2.909   7.475  22.406  1.00  0.00     0.002 A 
ATOM     26  C27 FTA A   1       1.668   8.017  22.052  1.00  0.00     0.029 A 
ENDBRANCH  19  21
ENDBRANCH  16  19
ENDBRANCH  11  13
ENDBRANCH   1  11
TORSDOF 5
ENDMDL
