MODEL 1
REMARK VINA RESULT:    -6.214      0.000      0.000
REMARK INTER + INTRA:          -8.944
REMARK INTER:                  -8.134
REMARK INTRA:                  -0.810
REMARK UNBOUND:                -0.914
REMARK  5 active torsions:
REMARK  status: ('A' for Active; 'I' for Inactive)
REMARK    1  A    between atoms: N8_1  and  C24_2 
REMARK    2  A    between atoms: N8_1  and  C7_8 
REMARK    3  A    between atoms: C2_13  and  N1_14 
REMARK    4  A    between atoms: N1_14  and  C17_15 
REMARK    5  A    between atoms: C14_16  and  C13_19 
ROOT
ATOM      1  C17 FTA A   1       5.022  16.181  17.759  1.00  0.00     0.142 C 
ATOM      2  C14 FTA A   1       4.338  15.951  18.897  1.00  0.00     0.158 C 
ATOM      3  C18 FTA A   1       3.682  17.043  19.584  1.00  0.00     0.069 C 
ATOM      4  N21 FTA A   1       3.253  18.025  20.060  1.00  0.00    -0.197 NA
ENDROOT
BRANCH   2   5
ATOM      5  C13 FTA A   1       4.251  14.572  19.429  1.00  0.00     0.197 A 
ATOM      6  N15 FTA A   1       4.835  14.106  20.605  1.00  0.00    -0.093 NA
ATOM      7  N19 FTA A   1       4.547  12.751  20.706  1.00  0.00    -0.231 N 
ATOM      8  N20 FTA A   1       3.793  12.363  19.608  1.00  0.00    -0.017 NA
ATOM      9  H15 FTA A   1       4.846  12.132  21.473  1.00  0.00     0.200 HD
ATOM     10  N16 FTA A   1       3.599  13.493  18.820  1.00  0.00    -0.090 NA
ENDBRANCH   2   5
BRANCH   1  11
ATOM     11  N1  FTA A   1       6.296  15.755  17.668  1.00  0.00    -0.389 N 
ATOM     12  H11 FTA A   1       6.455  14.803  17.307  1.00  0.00     0.159 HD
BRANCH  11  13
ATOM     13  C2  FTA A   1       7.439  16.518  18.031  1.00  0.00     0.028 A 
ATOM     14  C4  FTA A   1       8.736  16.077  17.779  1.00  0.00     0.031 A 
ATOM     15  C6  FTA A   1       9.811  16.760  18.363  1.00  0.00     0.031 A 
ATOM     16  C7  FTA A   1       9.626  17.865  19.190  1.00  0.00     0.032 A 
ATOM     17  C5  FTA A   1       8.333  18.306  19.409  1.00  0.00     0.031 A 
ATOM     18  C3  FTA A   1       7.252  17.635  18.850  1.00  0.00     0.031 A 
BRANCH  16  19
ATOM     19  N8  FTA A   1      10.673  18.439  19.954  1.00  0.00    -0.356 N 
ATOM     20  H1  FTA A   1      11.419  18.929  19.440  1.00  0.00     0.166 HD
BRANCH  19  21
ATOM     21  C24 FTA A   1      10.779  18.394  21.377  1.00  0.00     0.032 A 
ATOM     22  C26 FTA A   1      11.331  19.430  22.092  1.00  0.00     0.029 A 
ATOM     23  C28 FTA A   1      11.563  19.254  23.443  1.00  0.00     0.002 A 
ATOM     24  C30 FTA A   1      11.230  18.085  24.107  1.00  0.00     0.000 A 
ATOM     25  C29 FTA A   1      10.645  17.059  23.414  1.00  0.00     0.002 A 
ATOM     26  C27 FTA A   1      10.413  17.234  22.045  1.00  0.00     0.029 A 
ENDBRANCH  19  21
ENDBRANCH  16  19
ENDBRANCH  11  13
ENDBRANCH   1  11
TORSDOF 5
ENDMDL
MODEL 2
REMARK VINA RESULT:    -5.922      4.629      7.480
REMARK INTER + INTRA:          -8.566
REMARK INTER:                  -7.746
REMARK INTRA:                  -0.820
REMARK UNBOUND:                -0.914
REMARK  5 active torsions:
REMARK  status: ('A' for Active; 'I' for Inactive)
REMARK    1  A    between atoms: N8_1  and  C24_2 
REMARK    2  A    between atoms: N8_1  and  C7_8 
REMARK    3  A    between atoms: C2_13  and  N1_14 
REMARK    4  A    between atoms: N1_14  and  C17_15 
REMARK    5  A    between atoms: C14_16  and  C13_19 
ROOT
ATOM      1  C17 FTA A   1       4.612  12.334  21.096  1.00  0.00     0.142 C 
ATOM      2  C14 FTA A   1       4.060  11.200  21.573  1.00  0.00     0.158 C 
ATOM      3  C18 FTA A   1       4.904  10.110  22.012  1.00  0.00     0.069 C 
ATOM      4  N21 FTA A   1       5.704   9.294  22.275  1.00  0.00    -0.197 NA
ENDROOT
BRANCH   2   5
ATOM      5  C13 FTA A   1       2.586  11.088  21.657  1.00  0.00     0.197 A 
ATOM      6  N15 FTA A   1       1.793  11.466  22.738  1.00  0.00    -0.093 NA
ATOM      7  N19 FTA A   1       0.478  11.148  22.424  1.00  0.00    -0.231 N 
ATOM      8  N20 FTA A   1       0.439  10.574  21.161  1.00  0.00    -0.017 NA
ATOM      9  H15 FTA A   1      -0.338  11.312  23.031  1.00  0.00     0.200 HD
ATOM     10  N16 FTA A   1       1.744  10.545  20.680  1.00  0.00    -0.090 NA
ENDBRANCH   2   5
BRANCH   1  11
ATOM     11  N1  FTA A   1       4.217  12.795  19.894  1.00  0.00    -0.389 N 
ATOM     12  H11 FTA A   1       3.811  12.117  19.234  1.00  0.00     0.159 HD
BRANCH  11  13
ATOM     13  C2  FTA A   1       4.318  14.147  19.466  1.00  0.00     0.028 A 
ATOM     14  C4  FTA A   1       4.944  15.124  20.237  1.00  0.00     0.031 A 
ATOM     15  C6  FTA A   1       4.808  16.470  19.871  1.00  0.00     0.031 A 
ATOM     16  C7  FTA A   1       4.065  16.863  18.762  1.00  0.00     0.032 A 
ATOM     17  C5  FTA A   1       3.470  15.880  17.992  1.00  0.00     0.031 A 
ATOM     18  C3  FTA A   1       3.581  14.541  18.346  1.00  0.00     0.031 A 
BRANCH  16  19
ATOM     19  N8  FTA A   1       3.741  18.218  18.494  1.00  0.00    -0.356 N 
ATOM     20  H1  FTA A   1       4.242  18.939  19.032  1.00  0.00     0.166 HD
BRANCH  19  21
ATOM     21  C24 FTA A   1       2.778  18.664  17.539  1.00  0.00     0.032 A 
ATOM     22  C26 FTA A   1       1.439  18.731  17.844  1.00  0.00     0.029 A 
ATOM     23  C28 FTA A   1       0.541  19.004  16.829  1.00  0.00     0.002 A 
ATOM     24  C30 FTA A   1       0.944  19.243  15.526  1.00  0.00     0.000 A 
ATOM     25  C29 FTA A   1       2.278  19.217  15.217  1.00  0.00     0.002 A 
ATOM     26  C27 FTA A   1       3.188  18.937  16.242  1.00  0.00     0.029 A 
ENDBRANCH  19  21
ENDBRANCH  16  19
ENDBRANCH  11  13
ENDBRANCH   1  11
TORSDOF 5
ENDMDL
MODEL 3
REMARK VINA RESULT:    -5.873      3.171      5.530
REMARK INTER + INTRA:          -8.503
REMARK INTER:                  -7.553
REMARK INTRA:                  -0.950
REMARK UNBOUND:                -0.914
REMARK  5 active torsions:
REMARK  status: ('A' for Active; 'I' for Inactive)
REMARK    1  A    between atoms: N8_1  and  C24_2 
REMARK    2  A    between atoms: N8_1  and  C7_8 
REMARK    3  A    between atoms: C2_13  and  N1_14 
REMARK    4  A    between atoms: N1_14  and  C17_15 
REMARK    5  A    between atoms: C14_16  and  C13_19 
ROOT
ATOM      1  C17 FTA A   1       4.601  12.318  21.073  1.00  0.00     0.142 C 
ATOM      2  C14 FTA A   1       4.053  11.176  21.534  1.00  0.00     0.158 C 
ATOM      3  C18 FTA A   1       4.900  10.072  21.931  1.00  0.00     0.069 C 
ATOM      4  N21 FTA A   1       5.700   9.246  22.159  1.00  0.00    -0.197 NA
ENDROOT
BRANCH   2   5
ATOM      5  C13 FTA A   1       2.580  11.068  21.646  1.00  0.00     0.197 A 
ATOM      6  N15 FTA A   1       1.810  11.436  22.746  1.00  0.00    -0.093 NA
ATOM      7  N19 FTA A   1       0.488  11.128  22.453  1.00  0.00    -0.231 N 
ATOM      8  N20 FTA A   1       0.421  10.569  21.185  1.00  0.00    -0.017 NA
ATOM      9  H15 FTA A   1      -0.316  11.288  23.078  1.00  0.00     0.200 HD
ATOM     10  N16 FTA A   1       1.717  10.541  20.678  1.00  0.00    -0.090 NA
ENDBRANCH   2   5
BRANCH   1  11
ATOM     11  N1  FTA A   1       4.184  12.809  19.890  1.00  0.00    -0.389 N 
ATOM     12  H11 FTA A   1       3.803  12.140  19.205  1.00  0.00     0.159 HD
BRANCH  11  13
ATOM     13  C2  FTA A   1       4.230  14.179  19.514  1.00  0.00     0.028 A 
ATOM     14  C4  FTA A   1       3.688  14.637  18.316  1.00  0.00     0.031 A 
ATOM     15  C6  FTA A   1       3.967  15.946  17.900  1.00  0.00     0.031 A 
ATOM     16  C7  FTA A   1       4.772  16.804  18.645  1.00  0.00     0.032 A 
ATOM     17  C5  FTA A   1       5.283  16.342  19.845  1.00  0.00     0.031 A 
ATOM     18  C3  FTA A   1       5.028  15.043  20.269  1.00  0.00     0.031 A 
BRANCH  16  19
ATOM     19  N8  FTA A   1       5.237  18.048  18.149  1.00  0.00    -0.356 N 
ATOM     20  H1  FTA A   1       4.527  18.755  17.905  1.00  0.00     0.166 HD
BRANCH  19  21
ATOM     21  C24 FTA A   1       6.607  18.403  17.959  1.00  0.00     0.032 A 
ATOM     22  C26 FTA A   1       7.410  17.726  17.071  1.00  0.00     0.029 A 
ATOM     23  C28 FTA A   1       8.764  18.003  17.060  1.00  0.00     0.002 A 
ATOM     24  C30 FTA A   1       9.334  18.957  17.885  1.00  0.00     0.000 A 
ATOM     25  C29 FTA A   1       8.539  19.665  18.747  1.00  0.00     0.002 A 
ATOM     26  C27 FTA A   1       7.168  19.384  18.763  1.00  0.00     0.029 A 
ENDBRANCH  19  21
ENDBRANCH  16  19
ENDBRANCH  11  13
ENDBRANCH   1  11
TORSDOF 5
ENDMDL
MODEL 4
REMARK VINA RESULT:    -5.811      6.221     10.949
REMARK INTER + INTRA:          -8.422
REMARK INTER:                  -7.538
REMARK INTRA:                  -0.885
REMARK UNBOUND:                -0.914
REMARK  5 active torsions:
REMARK  status: ('A' for Active; 'I' for Inactive)
REMARK    1  A    between atoms: N8_1  and  C24_2 
REMARK    2  A    between atoms: N8_1  and  C7_8 
REMARK    3  A    between atoms: C2_13  and  N1_14 
REMARK    4  A    between atoms: N1_14  and  C17_15 
REMARK    5  A    between atoms: C14_16  and  C13_19 
ROOT
ATOM      1  C17 FTA A   1       2.191  16.929  16.921  1.00  0.00     0.142 C 
ATOM      2  C14 FTA A   1       3.019  17.131  17.965  1.00  0.00     0.158 C 
ATOM      3  C18 FTA A   1       3.315  18.477  18.409  1.00  0.00     0.069 C 
ATOM      4  N21 FTA A   1       3.507  19.614  18.619  1.00  0.00    -0.197 NA
ENDROOT
BRANCH   2   5
ATOM      5  C13 FTA A   1       3.609  15.966  18.663  1.00  0.00     0.197 A 
ATOM      6  N15 FTA A   1       3.626  14.652  18.200  1.00  0.00    -0.093 NA
ATOM      7  N19 FTA A   1       4.232  13.873  19.177  1.00  0.00    -0.231 N 
ATOM      8  N20 FTA A   1       4.592  14.681  20.245  1.00  0.00    -0.017 NA
ATOM      9  H15 FTA A   1       4.389  12.856  19.118  1.00  0.00     0.200 HD
ATOM     10  N16 FTA A   1       4.217  15.982  19.924  1.00  0.00    -0.090 NA
ENDBRANCH   2   5
BRANCH   1  11
ATOM     11  N1  FTA A   1       2.610  16.161  15.897  1.00  0.00    -0.389 N 
ATOM     12  H11 FTA A   1       3.625  16.106  15.728  1.00  0.00     0.159 HD
BRANCH  11  13
ATOM     13  C2  FTA A   1       1.759  15.419  15.032  1.00  0.00     0.028 A 
ATOM     14  C4  FTA A   1       1.307  15.932  13.819  1.00  0.00     0.031 A 
ATOM     15  C6  FTA A   1       0.295  15.252  13.129  1.00  0.00     0.031 A 
ATOM     16  C7  FTA A   1      -0.276  14.080  13.618  1.00  0.00     0.032 A 
ATOM     17  C5  FTA A   1       0.202  13.570  14.812  1.00  0.00     0.031 A 
ATOM     18  C3  FTA A   1       1.195  14.236  15.518  1.00  0.00     0.031 A 
BRANCH  16  19
ATOM     19  N8  FTA A   1      -1.435  13.493  13.049  1.00  0.00    -0.356 N 
ATOM     20  H1  FTA A   1      -1.337  13.058  12.120  1.00  0.00     0.166 HD
BRANCH  19  21
ATOM     21  C24 FTA A   1      -2.726  13.455  13.657  1.00  0.00     0.032 A 
ATOM     22  C26 FTA A   1      -3.030  14.231  14.751  1.00  0.00     0.029 A 
ATOM     23  C28 FTA A   1      -4.234  14.023  15.396  1.00  0.00     0.002 A 
ATOM     24  C30 FTA A   1      -5.156  13.084  14.964  1.00  0.00     0.000 A 
ATOM     25  C29 FTA A   1      -4.881  12.332  13.854  1.00  0.00     0.002 A 
ATOM     26  C27 FTA A   1      -3.661  12.538  13.200  1.00  0.00     0.029 A 
ENDBRANCH  19  21
ENDBRANCH  16  19
ENDBRANCH  11  13
ENDBRANCH   1  11
TORSDOF 5
ENDMDL
MODEL 5
REMARK VINA RESULT:    -5.757      5.804     10.895
REMARK INTER + INTRA:          -8.353
REMARK INTER:                  -7.435
REMARK INTRA:                  -0.918
REMARK UNBOUND:                -0.914
REMARK  5 active torsions:
REMARK  status: ('A' for Active; 'I' for Inactive)
REMARK    1  A    between atoms: N8_1  and  C24_2 
REMARK    2  A    between atoms: N8_1  and  C7_8 
REMARK    3  A    between atoms: C2_13  and  N1_14 
REMARK    4  A    between atoms: N1_14  and  C17_15 
REMARK    5  A    between atoms: C14_16  and  C13_19 
ROOT
ATOM      1  C17 FTA A   1       3.560  16.509  17.521  1.00  0.00     0.142 C 
ATOM      2  C14 FTA A   1       3.658  16.548  18.864  1.00  0.00     0.158 C 
ATOM      3  C18 FTA A   1       4.143  15.396  19.592  1.00  0.00     0.069 C 
ATOM      4  N21 FTA A   1       4.495  14.375  20.050  1.00  0.00    -0.197 NA
ENDROOT
BRANCH   2   5
ATOM      5  C13 FTA A   1       3.280  17.785  19.586  1.00  0.00     0.197 A 
ATOM      6  N15 FTA A   1       3.968  18.355  20.655  1.00  0.00    -0.093 NA
ATOM      7  N19 FTA A   1       3.252  19.474  21.063  1.00  0.00    -0.231 N 
ATOM      8  N20 FTA A   1       2.125  19.609  20.265  1.00  0.00    -0.017 NA
ATOM      9  H15 FTA A   1       3.516  20.103  21.835  1.00  0.00     0.200 HD
ATOM     10  N16 FTA A   1       2.147  18.569  19.341  1.00  0.00    -0.090 NA
ENDBRANCH   2   5
BRANCH   1  11
ATOM     11  N1  FTA A   1       2.388  16.834  16.943  1.00  0.00    -0.389 N 
ATOM     12  H11 FTA A   1       1.935  17.709  17.245  1.00  0.00     0.159 HD
BRANCH  11  13
ATOM     13  C2  FTA A   1       1.727  16.062  15.949  1.00  0.00     0.028 A 
ATOM     14  C4  FTA A   1       1.070  16.648  14.870  1.00  0.00     0.031 A 
ATOM     15  C6  FTA A   1       0.249  15.853  14.060  1.00  0.00     0.031 A 
ATOM     16  C7  FTA A   1       0.066  14.493  14.300  1.00  0.00     0.032 A 
ATOM     17  C5  FTA A   1       0.745  13.921  15.361  1.00  0.00     0.031 A 
ATOM     18  C3  FTA A   1       1.553  14.695  16.184  1.00  0.00     0.031 A 
BRANCH  16  19
ATOM     19  N8  FTA A   1      -0.914  13.718  13.629  1.00  0.00    -0.356 N 
ATOM     20  H1  FTA A   1      -0.610  13.188  12.800  1.00  0.00     0.166 HD
BRANCH  19  21
ATOM     21  C24 FTA A   1      -2.287  13.613  14.008  1.00  0.00     0.032 A 
ATOM     22  C26 FTA A   1      -2.767  14.212  15.148  1.00  0.00     0.029 A 
ATOM     23  C28 FTA A   1      -4.059  13.930  15.551  1.00  0.00     0.002 A 
ATOM     24  C30 FTA A   1      -4.895  13.093  14.831  1.00  0.00     0.000 A 
ATOM     25  C29 FTA A   1      -4.441  12.520  13.673  1.00  0.00     0.002 A 
ATOM     26  C27 FTA A   1      -3.132  12.801  13.266  1.00  0.00     0.029 A 
ENDBRANCH  19  21
ENDBRANCH  16  19
ENDBRANCH  11  13
ENDBRANCH   1  11
TORSDOF 5
ENDMDL
MODEL 6
REMARK VINA RESULT:    -5.684      2.065      3.018
REMARK INTER + INTRA:          -8.259
REMARK INTER:                  -7.254
REMARK INTRA:                  -1.005
REMARK UNBOUND:                -0.914
REMARK  5 active torsions:
REMARK  status: ('A' for Active; 'I' for Inactive)
REMARK    1  A    between atoms: N8_1  and  C24_2 
REMARK    2  A    between atoms: N8_1  and  C7_8 
REMARK    3  A    between atoms: C2_13  and  N1_14 
REMARK    4  A    between atoms: N1_14  and  C17_15 
REMARK    5  A    between atoms: C14_16  and  C13_19 
ROOT
ATOM      1  C17 FTA A   1       4.522  16.228  17.408  1.00  0.00     0.142 C 
ATOM      2  C14 FTA A   1       3.228  16.589  17.519  1.00  0.00     0.158 C 
ATOM      3  C18 FTA A   1       2.260  16.136  16.543  1.00  0.00     0.069 C 
ATOM      4  N21 FTA A   1       1.604  15.745  15.654  1.00  0.00    -0.197 NA
ENDROOT
BRANCH   2   5
ATOM      5  C13 FTA A   1       2.804  17.439  18.655  1.00  0.00     0.197 A 
ATOM      6  N15 FTA A   1       3.251  17.337  19.970  1.00  0.00    -0.093 NA
ATOM      7  N19 FTA A   1       2.570  18.288  20.718  1.00  0.00    -0.231 N 
ATOM      8  N20 FTA A   1       1.700  18.982  19.890  1.00  0.00    -0.017 NA
ATOM      9  H15 FTA A   1       2.691  18.452  21.728  1.00  0.00     0.200 HD
ATOM     10  N16 FTA A   1       1.852  18.464  18.607  1.00  0.00    -0.090 NA
ENDBRANCH   2   5
BRANCH   1  11
ATOM     11  N1  FTA A   1       5.469  17.185  17.422  1.00  0.00    -0.389 N 
ATOM     12  H11 FTA A   1       5.343  17.989  16.789  1.00  0.00     0.159 HD
BRANCH  11  13
ATOM     13  C2  FTA A   1       6.628  17.173  18.244  1.00  0.00     0.028 A 
ATOM     14  C4  FTA A   1       6.716  17.924  19.414  1.00  0.00     0.031 A 
ATOM     15  C6  FTA A   1       7.959  18.049  20.050  1.00  0.00     0.031 A 
ATOM     16  C7  FTA A   1       9.110  17.447  19.550  1.00  0.00     0.032 A 
ATOM     17  C5  FTA A   1       9.001  16.683  18.401  1.00  0.00     0.031 A 
ATOM     18  C3  FTA A   1       7.781  16.558  17.748  1.00  0.00     0.031 A 
BRANCH  16  19
ATOM     19  N8  FTA A   1      10.406  17.727  20.053  1.00  0.00    -0.356 N 
ATOM     20  H1  FTA A   1      11.192  17.676  19.389  1.00  0.00     0.166 HD
BRANCH  19  21
ATOM     21  C24 FTA A   1      10.711  18.075  21.404  1.00  0.00     0.032 A 
ATOM     22  C26 FTA A   1      11.244  19.300  21.729  1.00  0.00     0.029 A 
ATOM     23  C28 FTA A   1      11.677  19.510  23.025  1.00  0.00     0.002 A 
ATOM     24  C30 FTA A   1      11.563  18.546  24.012  1.00  0.00     0.000 A 
ATOM     25  C29 FTA A   1      10.998  17.335  23.709  1.00  0.00     0.002 A 
ATOM     26  C27 FTA A   1      10.563  17.118  22.397  1.00  0.00     0.029 A 
ENDBRANCH  19  21
ENDBRANCH  16  19
ENDBRANCH  11  13
ENDBRANCH   1  11
TORSDOF 5
ENDMDL
MODEL 7
REMARK VINA RESULT:    -5.683      3.840      5.874
REMARK INTER + INTRA:          -8.258
REMARK INTER:                  -7.344
REMARK INTRA:                  -0.914
REMARK UNBOUND:                -0.914
REMARK  5 active torsions:
REMARK  status: ('A' for Active; 'I' for Inactive)
REMARK    1  A    between atoms: N8_1  and  C24_2 
REMARK    2  A    between atoms: N8_1  and  C7_8 
REMARK    3  A    between atoms: C2_13  and  N1_14 
REMARK    4  A    between atoms: N1_14  and  C17_15 
REMARK    5  A    between atoms: C14_16  and  C13_19 
ROOT
ATOM      1  C17 FTA A   1       4.514  11.924  21.339  1.00  0.00     0.142 C 
ATOM      2  C14 FTA A   1       3.832  10.849  21.783  1.00  0.00     0.158 C 
ATOM      3  C18 FTA A   1       4.539   9.648  22.170  1.00  0.00     0.069 C 
ATOM      4  N21 FTA A   1       5.235   8.731  22.393  1.00  0.00    -0.197 NA
ENDROOT
BRANCH   2   5
ATOM      5  C13 FTA A   1       2.356  10.915  21.884  1.00  0.00     0.197 A 
ATOM      6  N15 FTA A   1       1.626  11.321  22.999  1.00  0.00    -0.093 NA
ATOM      7  N19 FTA A   1       0.279  11.188  22.686  1.00  0.00    -0.231 N 
ATOM      8  N20 FTA A   1       0.157  10.702  21.393  1.00  0.00    -0.017 NA
ATOM      9  H15 FTA A   1      -0.505  11.415  23.315  1.00  0.00     0.200 HD
ATOM     10  N16 FTA A   1       1.444  10.542  20.890  1.00  0.00    -0.090 NA
ENDBRANCH   2   5
BRANCH   1  11
ATOM     11  N1  FTA A   1       4.168  12.474  20.160  1.00  0.00    -0.389 N 
ATOM     12  H11 FTA A   1       3.683  11.873  19.478  1.00  0.00     0.159 HD
BRANCH  11  13
ATOM     13  C2  FTA A   1       4.419  13.822  19.785  1.00  0.00     0.028 A 
ATOM     14  C4  FTA A   1       5.265  14.651  20.518  1.00  0.00     0.031 A 
ATOM     15  C6  FTA A   1       5.289  16.022  20.232  1.00  0.00     0.031 A 
ATOM     16  C7  FTA A   1       4.493  16.585  19.238  1.00  0.00     0.032 A 
ATOM     17  C5  FTA A   1       3.677  15.745  18.501  1.00  0.00     0.031 A 
ATOM     18  C3  FTA A   1       3.628  14.384  18.778  1.00  0.00     0.031 A 
BRANCH  16  19
ATOM     19  N8  FTA A   1       4.345  17.986  19.071  1.00  0.00    -0.356 N 
ATOM     20  H1  FTA A   1       3.949  18.316  18.180  1.00  0.00     0.166 HD
BRANCH  19  21
ATOM     21  C24 FTA A   1       4.699  18.975  20.038  1.00  0.00     0.032 A 
ATOM     22  C26 FTA A   1       5.937  19.574  20.035  1.00  0.00     0.029 A 
ATOM     23  C28 FTA A   1       6.279  20.392  21.095  1.00  0.00     0.002 A 
ATOM     24  C30 FTA A   1       5.411  20.655  22.141  1.00  0.00     0.000 A 
ATOM     25  C29 FTA A   1       4.161  20.095  22.136  1.00  0.00     0.002 A 
ATOM     26  C27 FTA A   1       3.813  19.263  21.066  1.00  0.00     0.029 A 
ENDBRANCH  19  21
ENDBRANCH  16  19
ENDBRANCH  11  13
ENDBRANCH   1  11
TORSDOF 5
ENDMDL
MODEL 8
REMARK VINA RESULT:    -5.664      4.221      6.677
REMARK INTER + INTRA:          -8.233
REMARK INTER:                  -7.274
REMARK INTRA:                  -0.959
REMARK UNBOUND:                -0.914
REMARK  5 active torsions:
REMARK  status: ('A' for Active; 'I' for Inactive)
REMARK    1  A    between atoms: N8_1  and  C24_2 
REMARK    2  A    between atoms: N8_1  and  C7_8 
REMARK    3  A    between atoms: C2_13  and  N1_14 
REMARK    4  A    between atoms: N1_14  and  C17_15 
REMARK    5  A    between atoms: C14_16  and  C13_19 
ROOT
ATOM      1  C17 FTA A   1       4.577  12.033  21.196  1.00  0.00     0.142 C 
ATOM      2  C14 FTA A   1       3.926  10.962  21.694  1.00  0.00     0.158 C 
ATOM      3  C18 FTA A   1       4.668   9.809  22.154  1.00  0.00     0.069 C 
ATOM      4  N21 FTA A   1       5.392   8.929  22.433  1.00  0.00    -0.197 NA
ENDROOT
BRANCH   2   5
ATOM      5  C13 FTA A   1       2.448  10.984  21.780  1.00  0.00     0.197 A 
ATOM      6  N15 FTA A   1       1.693  11.426  22.865  1.00  0.00    -0.093 NA
ATOM      7  N19 FTA A   1       0.355  11.232  22.550  1.00  0.00    -0.231 N 
ATOM      8  N20 FTA A   1       0.262  10.672  21.284  1.00  0.00    -0.017 NA
ATOM      9  H15 FTA A   1      -0.442  11.466  23.159  1.00  0.00     0.200 HD
ATOM     10  N16 FTA A   1       1.558  10.528  20.800  1.00  0.00    -0.090 NA
ENDBRANCH   2   5
BRANCH   1  11
ATOM     11  N1  FTA A   1       4.224  12.505  19.985  1.00  0.00    -0.389 N 
ATOM     12  H11 FTA A   1       3.935  11.818  19.273  1.00  0.00     0.159 HD
BRANCH  11  13
ATOM     13  C2  FTA A   1       4.217  13.877  19.615  1.00  0.00     0.028 A 
ATOM     14  C4  FTA A   1       3.614  14.326  18.444  1.00  0.00     0.031 A 
ATOM     15  C6  FTA A   1       3.841  15.644  18.023  1.00  0.00     0.031 A 
ATOM     16  C7  FTA A   1       4.654  16.519  18.739  1.00  0.00     0.032 A 
ATOM     17  C5  FTA A   1       5.226  16.066  19.915  1.00  0.00     0.031 A 
ATOM     18  C3  FTA A   1       5.024  14.759  20.341  1.00  0.00     0.031 A 
BRANCH  16  19
ATOM     19  N8  FTA A   1       5.065  17.778  18.231  1.00  0.00    -0.356 N 
ATOM     20  H1  FTA A   1       5.107  18.565  18.895  1.00  0.00     0.166 HD
BRANCH  19  21
ATOM     21  C24 FTA A   1       5.425  18.044  16.875  1.00  0.00     0.032 A 
ATOM     22  C26 FTA A   1       4.561  18.672  16.010  1.00  0.00     0.029 A 
ATOM     23  C28 FTA A   1       4.899  18.745  14.672  1.00  0.00     0.002 A 
ATOM     24  C30 FTA A   1       6.089  18.238  14.179  1.00  0.00     0.000 A 
ATOM     25  C29 FTA A   1       6.976  17.644  15.037  1.00  0.00     0.002 A 
ATOM     26  C27 FTA A   1       6.634  17.565  16.391  1.00  0.00     0.029 A 
ENDBRANCH  19  21
ENDBRANCH  16  19
ENDBRANCH  11  13
ENDBRANCH   1  11
TORSDOF 5
ENDMDL
MODEL 9
REMARK VINA RESULT:    -5.485      3.409      8.858
REMARK INTER + INTRA:          -8.002
REMARK INTER:                  -7.044
REMARK INTRA:                  -0.958
REMARK UNBOUND:                -0.914
REMARK  5 active torsions:
REMARK  status: ('A' for Active; 'I' for Inactive)
REMARK    1  A    between atoms: N8_1  and  C24_2 
REMARK    2  A    between atoms: N8_1  and  C7_8 
REMARK    3  A    between atoms: C2_13  and  N1_14 
REMARK    4  A    between atoms: N1_14  and  C17_15 
REMARK    5  A    between atoms: C14_16  and  C13_19 
ROOT
ATOM      1  C17 FTA A   1       8.306  16.494  17.011  1.00  0.00     0.142 C 
ATOM      2  C14 FTA A   1       9.462  16.631  17.690  1.00  0.00     0.158 C 
ATOM      3  C18 FTA A   1      10.718  16.262  17.071  1.00  0.00     0.069 C 
ATOM      4  N21 FTA A   1      11.645  15.872  16.469  1.00  0.00    -0.197 NA
ENDROOT
BRANCH   2   5
ATOM      5  C13 FTA A   1       9.438  17.175  19.067  1.00  0.00     0.197 A 
ATOM      6  N15 FTA A   1      10.525  17.268  19.934  1.00  0.00    -0.093 NA
ATOM      7  N19 FTA A   1      10.059  17.791  21.133  1.00  0.00    -0.231 N 
ATOM      8  N20 FTA A   1       8.695  18.024  21.029  1.00  0.00    -0.017 NA
ATOM      9  H15 FTA A   1      10.634  17.977  21.967  1.00  0.00     0.200 HD
ATOM     10  N16 FTA A   1       8.310  17.652  19.745  1.00  0.00    -0.090 NA
ENDBRANCH   2   5
BRANCH   1  11
ATOM     11  N1  FTA A   1       7.296  15.805  17.576  1.00  0.00    -0.389 N 
ATOM     12  H11 FTA A   1       7.542  14.986  18.151  1.00  0.00     0.159 HD
BRANCH  11  13
ATOM     13  C2  FTA A   1       5.917  16.122  17.440  1.00  0.00     0.028 A 
ATOM     14  C4  FTA A   1       4.957  15.650  18.332  1.00  0.00     0.031 A 
ATOM     15  C6  FTA A   1       3.601  15.805  18.015  1.00  0.00     0.031 A 
ATOM     16  C7  FTA A   1       3.181  16.414  16.835  1.00  0.00     0.032 A 
ATOM     17  C5  FTA A   1       4.147  16.900  15.972  1.00  0.00     0.031 A 
ATOM     18  C3  FTA A   1       5.497  16.744  16.261  1.00  0.00     0.031 A 
BRANCH  16  19
ATOM     19  N8  FTA A   1       1.832  16.394  16.396  1.00  0.00    -0.356 N 
ATOM     20  H1  FTA A   1       1.179  17.050  16.849  1.00  0.00     0.166 HD
BRANCH  19  21
ATOM     21  C24 FTA A   1       1.306  15.541  15.380  1.00  0.00     0.032 A 
ATOM     22  C26 FTA A   1       0.767  14.312  15.678  1.00  0.00     0.029 A 
ATOM     23  C28 FTA A   1       0.434  13.465  14.639  1.00  0.00     0.002 A 
ATOM     24  C30 FTA A   1       0.594  13.820  13.310  1.00  0.00     0.000 A 
ATOM     25  C29 FTA A   1       1.094  15.057  12.999  1.00  0.00     0.002 A 
ATOM     26  C27 FTA A   1       1.436  15.916  14.050  1.00  0.00     0.029 A 
ENDBRANCH  19  21
ENDBRANCH  16  19
ENDBRANCH  11  13
ENDBRANCH   1  11
TORSDOF 5
ENDMDL
