MODEL 1
REMARK VINA RESULT:    -5.535      0.000      0.000
REMARK INTER + INTRA:          -8.126
REMARK INTER:                  -7.236
REMARK INTRA:                  -0.890
REMARK UNBOUND:                -0.972
REMARK  5 active torsions:
REMARK  status: ('A' for Active; 'I' for Inactive)
REMARK    1  A    between atoms: N8_1  and  C24_2 
REMARK    2  A    between atoms: N8_1  and  C7_8 
REMARK    3  A    between atoms: C2_13  and  N1_14 
REMARK    4  A    between atoms: N1_14  and  C17_15 
REMARK    5  A    between atoms: C14_16  and  C13_19 
ROOT
ATOM      1  C17 FTA A   1       0.706  17.520  16.938  1.00  0.00     0.142 C 
ATOM      2  C14 FTA A   1       1.776  18.233  17.344  1.00  0.00     0.158 C 
ATOM      3  C18 FTA A   1       1.838  19.657  17.096  1.00  0.00     0.069 C 
ATOM      4  N21 FTA A   1       1.778  20.784  16.777  1.00  0.00    -0.197 NA
ENDROOT
BRANCH   2   5
ATOM      5  C13 FTA A   1       2.877  17.549  18.060  1.00  0.00     0.197 A 
ATOM      6  N15 FTA A   1       3.383  16.283  17.773  1.00  0.00    -0.093 NA
ATOM      7  N19 FTA A   1       4.372  16.006  18.708  1.00  0.00    -0.231 N 
ATOM      8  N20 FTA A   1       4.490  17.081  19.578  1.00  0.00    -0.017 NA
ATOM      9  H15 FTA A   1       4.929  15.141  18.750  1.00  0.00     0.200 HD
ATOM     10  N16 FTA A   1       3.571  18.043  19.171  1.00  0.00    -0.090 NA
ENDBRANCH   2   5
BRANCH   1  11
ATOM     11  N1  FTA A   1       0.904  16.422  16.184  1.00  0.00    -0.389 N 
ATOM     12  H11 FTA A   1       1.856  16.030  16.153  1.00  0.00     0.159 HD
BRANCH  11  13
ATOM     13  C2  FTA A   1      -0.102  15.762  15.426  1.00  0.00     0.028 A 
ATOM     14  C4  FTA A   1       0.114  14.522  14.830  1.00  0.00     0.031 A 
ATOM     15  C6  FTA A   1      -0.828  14.036  13.912  1.00  0.00     0.031 A 
ATOM     16  C7  FTA A   1      -1.973  14.754  13.576  1.00  0.00     0.032 A 
ATOM     17  C5  FTA A   1      -2.185  15.972  14.197  1.00  0.00     0.031 A 
ATOM     18  C3  FTA A   1      -1.257  16.478  15.099  1.00  0.00     0.031 A 
BRANCH  16  19
ATOM     19  N8  FTA A   1      -2.826  14.385  12.505  1.00  0.00    -0.356 N 
ATOM     20  H1  FTA A   1      -2.599  14.755  11.571  1.00  0.00     0.166 HD
BRANCH  19  21
ATOM     21  C24 FTA A   1      -3.974  13.542  12.615  1.00  0.00     0.032 A 
ATOM     22  C26 FTA A   1      -4.696  13.458  13.782  1.00  0.00     0.029 A 
ATOM     23  C28 FTA A   1      -5.687  12.499  13.879  1.00  0.00     0.002 A 
ATOM     24  C30 FTA A   1      -5.999  11.645  12.836  1.00  0.00     0.000 A 
ATOM     25  C29 FTA A   1      -5.312  11.745  11.655  1.00  0.00     0.002 A 
ATOM     26  C27 FTA A   1      -4.306  12.712  11.555  1.00  0.00     0.029 A 
ENDBRANCH  19  21
ENDBRANCH  16  19
ENDBRANCH  11  13
ENDBRANCH   1  11
TORSDOF 5
ENDMDL
MODEL 2
REMARK VINA RESULT:    -5.523      4.054      7.260
REMARK INTER + INTRA:          -8.110
REMARK INTER:                  -7.207
REMARK INTRA:                  -0.904
REMARK UNBOUND:                -0.972
REMARK  5 active torsions:
REMARK  status: ('A' for Active; 'I' for Inactive)
REMARK    1  A    between atoms: N8_1  and  C24_2 
REMARK    2  A    between atoms: N8_1  and  C7_8 
REMARK    3  A    between atoms: C2_13  and  N1_14 
REMARK    4  A    between atoms: N1_14  and  C17_15 
REMARK    5  A    between atoms: C14_16  and  C13_19 
ROOT
ATOM      1  C17 FTA A   1       7.197  19.081  19.120  1.00  0.00     0.142 C 
ATOM      2  C14 FTA A   1       8.477  18.797  19.434  1.00  0.00     0.158 C 
ATOM      3  C18 FTA A   1       9.368  18.254  18.433  1.00  0.00     0.069 C 
ATOM      4  N21 FTA A   1       9.956  17.767  17.542  1.00  0.00    -0.197 NA
ENDROOT
BRANCH   2   5
ATOM      5  C13 FTA A   1       8.965  19.062  20.807  1.00  0.00     0.197 A 
ATOM      6  N15 FTA A   1       8.943  18.166  21.874  1.00  0.00    -0.093 NA
ATOM      7  N19 FTA A   1       9.450  18.828  22.985  1.00  0.00    -0.231 N 
ATOM      8  N20 FTA A   1       9.786  20.126  22.628  1.00  0.00    -0.017 NA
ATOM      9  H15 FTA A   1       9.559  18.420  23.925  1.00  0.00     0.200 HD
ATOM     10  N16 FTA A   1       9.497  20.269  21.275  1.00  0.00    -0.090 NA
ENDBRANCH   2   5
BRANCH   1  11
ATOM     11  N1  FTA A   1       6.211  18.569  19.882  1.00  0.00    -0.389 N 
ATOM     12  H11 FTA A   1       6.405  18.435  20.885  1.00  0.00     0.159 HD
BRANCH  11  13
ATOM     13  C2  FTA A   1       4.922  18.201  19.408  1.00  0.00     0.028 A 
ATOM     14  C4  FTA A   1       4.649  16.926  18.920  1.00  0.00     0.031 A 
ATOM     15  C6  FTA A   1       3.435  16.697  18.258  1.00  0.00     0.031 A 
ATOM     16  C7  FTA A   1       2.492  17.705  18.071  1.00  0.00     0.032 A 
ATOM     17  C5  FTA A   1       2.768  18.960  18.583  1.00  0.00     0.031 A 
ATOM     18  C3  FTA A   1       3.972  19.211  19.230  1.00  0.00     0.031 A 
BRANCH  16  19
ATOM     19  N8  FTA A   1       1.361  17.553  17.229  1.00  0.00    -0.356 N 
ATOM     20  H1  FTA A   1       0.485  18.007  17.529  1.00  0.00     0.166 HD
BRANCH  19  21
ATOM     21  C24 FTA A   1       1.334  16.824  16.002  1.00  0.00     0.032 A 
ATOM     22  C26 FTA A   1       1.970  17.288  14.875  1.00  0.00     0.029 A 
ATOM     23  C28 FTA A   1       1.763  16.627  13.679  1.00  0.00     0.002 A 
ATOM     24  C30 FTA A   1       0.966  15.499  13.582  1.00  0.00     0.000 A 
ATOM     25  C29 FTA A   1       0.358  15.005  14.705  1.00  0.00     0.002 A 
ATOM     26  C27 FTA A   1       0.563  15.674  15.917  1.00  0.00     0.029 A 
ENDBRANCH  19  21
ENDBRANCH  16  19
ENDBRANCH  11  13
ENDBRANCH   1  11
TORSDOF 5
ENDMDL
MODEL 3
REMARK VINA RESULT:    -5.477      3.931      9.507
REMARK INTER + INTRA:          -8.050
REMARK INTER:                  -7.123
REMARK INTRA:                  -0.928
REMARK UNBOUND:                -0.972
REMARK  5 active torsions:
REMARK  status: ('A' for Active; 'I' for Inactive)
REMARK    1  A    between atoms: N8_1  and  C24_2 
REMARK    2  A    between atoms: N8_1  and  C7_8 
REMARK    3  A    between atoms: C2_13  and  N1_14 
REMARK    4  A    between atoms: N1_14  and  C17_15 
REMARK    5  A    between atoms: C14_16  and  C13_19 
ROOT
ATOM      1  C17 FTA A   1       0.378  18.412  16.663  1.00  0.00     0.142 C 
ATOM      2  C14 FTA A   1      -0.710  17.758  16.209  1.00  0.00     0.158 C 
ATOM      3  C18 FTA A   1      -2.013  18.384  16.272  1.00  0.00     0.069 C 
ATOM      4  N21 FTA A   1      -3.005  18.987  16.438  1.00  0.00    -0.197 NA
ENDROOT
BRANCH   2   5
ATOM      5  C13 FTA A   1      -0.558  16.403  15.632  1.00  0.00     0.197 A 
ATOM      6  N15 FTA A   1       0.520  15.542  15.829  1.00  0.00    -0.093 NA
ATOM      7  N19 FTA A   1       0.285  14.400  15.075  1.00  0.00    -0.231 N 
ATOM      8  N20 FTA A   1      -0.923  14.536  14.406  1.00  0.00    -0.017 NA
ATOM      9  H15 FTA A   1       0.908  13.581  15.020  1.00  0.00     0.200 HD
ATOM     10  N16 FTA A   1      -1.452  15.773  14.758  1.00  0.00    -0.090 NA
ENDBRANCH   2   5
BRANCH   1  11
ATOM     11  N1  FTA A   1       1.176  17.803  17.561  1.00  0.00    -0.389 N 
ATOM     12  H11 FTA A   1       0.727  17.380  18.387  1.00  0.00     0.159 HD
BRANCH  11  13
ATOM     13  C2  FTA A   1       2.590  17.698  17.457  1.00  0.00     0.028 A 
ATOM     14  C4  FTA A   1       3.273  18.032  16.291  1.00  0.00     0.031 A 
ATOM     15  C6  FTA A   1       4.628  17.690  16.175  1.00  0.00     0.031 A 
ATOM     16  C7  FTA A   1       5.312  17.024  17.188  1.00  0.00     0.032 A 
ATOM     17  C5  FTA A   1       4.625  16.721  18.350  1.00  0.00     0.031 A 
ATOM     18  C3  FTA A   1       3.279  17.039  18.479  1.00  0.00     0.031 A 
BRANCH  16  19
ATOM     19  N8  FTA A   1       6.612  16.485  17.013  1.00  0.00    -0.356 N 
ATOM     20  H1  FTA A   1       6.712  15.462  17.076  1.00  0.00     0.166 HD
BRANCH  19  21
ATOM     21  C24 FTA A   1       7.794  17.244  16.757  1.00  0.00     0.032 A 
ATOM     22  C26 FTA A   1       8.154  17.608  15.481  1.00  0.00     0.029 A 
ATOM     23  C28 FTA A   1       9.392  18.190  15.282  1.00  0.00     0.002 A 
ATOM     24  C30 FTA A   1      10.267  18.447  16.324  1.00  0.00     0.000 A 
ATOM     25  C29 FTA A   1       9.905  18.124  17.604  1.00  0.00     0.002 A 
ATOM     26  C27 FTA A   1       8.653  17.531  17.808  1.00  0.00     0.029 A 
ENDBRANCH  19  21
ENDBRANCH  16  19
ENDBRANCH  11  13
ENDBRANCH   1  11
TORSDOF 5
ENDMDL
MODEL 4
REMARK VINA RESULT:    -5.454      3.618      6.458
REMARK INTER + INTRA:          -8.021
REMARK INTER:                  -7.049
REMARK INTRA:                  -0.971
REMARK UNBOUND:                -0.972
REMARK  5 active torsions:
REMARK  status: ('A' for Active; 'I' for Inactive)
REMARK    1  A    between atoms: N8_1  and  C24_2 
REMARK    2  A    between atoms: N8_1  and  C7_8 
REMARK    3  A    between atoms: C2_13  and  N1_14 
REMARK    4  A    between atoms: N1_14  and  C17_15 
REMARK    5  A    between atoms: C14_16  and  C13_19 
ROOT
ATOM      1  C17 FTA A   1       7.656  17.463  16.688  1.00  0.00     0.142 C 
ATOM      2  C14 FTA A   1       8.626  17.889  17.521  1.00  0.00     0.158 C 
ATOM      3  C18 FTA A   1      10.018  17.699  17.175  1.00  0.00     0.069 C 
ATOM      4  N21 FTA A   1      11.093  17.428  16.794  1.00  0.00    -0.197 NA
ENDROOT
BRANCH   2   5
ATOM      5  C13 FTA A   1       8.254  18.567  18.785  1.00  0.00     0.197 A 
ATOM      6  N15 FTA A   1       7.179  19.434  18.968  1.00  0.00    -0.093 NA
ATOM      7  N19 FTA A   1       7.219  19.878  20.283  1.00  0.00    -0.231 N 
ATOM      8  N20 FTA A   1       8.307  19.303  20.924  1.00  0.00    -0.017 NA
ATOM      9  H15 FTA A   1       6.549  20.531  20.714  1.00  0.00     0.200 HD
ATOM     10  N16 FTA A   1       8.943  18.481  20.000  1.00  0.00    -0.090 NA
ENDBRANCH   2   5
BRANCH   1  11
ATOM     11  N1  FTA A   1       6.687  16.662  17.171  1.00  0.00    -0.389 N 
ATOM     12  H11 FTA A   1       6.955  15.708  17.453  1.00  0.00     0.159 HD
BRANCH  11  13
ATOM     13  C2  FTA A   1       5.323  17.033  17.322  1.00  0.00     0.028 A 
ATOM     14  C4  FTA A   1       4.577  16.675  18.443  1.00  0.00     0.031 A 
ATOM     15  C6  FTA A   1       3.189  16.868  18.426  1.00  0.00     0.031 A 
ATOM     16  C7  FTA A   1       2.530  17.406  17.323  1.00  0.00     0.032 A 
ATOM     17  C5  FTA A   1       3.288  17.780  16.228  1.00  0.00     0.031 A 
ATOM     18  C3  FTA A   1       4.663  17.584  16.220  1.00  0.00     0.031 A 
BRANCH  16  19
ATOM     19  N8  FTA A   1       1.117  17.417  17.202  1.00  0.00    -0.356 N 
ATOM     20  H1  FTA A   1       0.586  17.938  17.914  1.00  0.00     0.166 HD
BRANCH  19  21
ATOM     21  C24 FTA A   1       0.371  16.765  16.173  1.00  0.00     0.032 A 
ATOM     22  C26 FTA A   1      -0.709  17.370  15.574  1.00  0.00     0.029 A 
ATOM     23  C28 FTA A   1      -1.491  16.624  14.713  1.00  0.00     0.002 A 
ATOM     24  C30 FTA A   1      -1.209  15.303  14.409  1.00  0.00     0.000 A 
ATOM     25  C29 FTA A   1      -0.115  14.701  14.970  1.00  0.00     0.002 A 
ATOM     26  C27 FTA A   1       0.677  15.453  15.845  1.00  0.00     0.029 A 
ENDBRANCH  19  21
ENDBRANCH  16  19
ENDBRANCH  11  13
ENDBRANCH   1  11
TORSDOF 5
ENDMDL
MODEL 5
REMARK VINA RESULT:    -5.430      3.645     10.202
REMARK INTER + INTRA:          -7.990
REMARK INTER:                  -7.048
REMARK INTRA:                  -0.942
REMARK UNBOUND:                -0.972
REMARK  5 active torsions:
REMARK  status: ('A' for Active; 'I' for Inactive)
REMARK    1  A    between atoms: N8_1  and  C24_2 
REMARK    2  A    between atoms: N8_1  and  C7_8 
REMARK    3  A    between atoms: C2_13  and  N1_14 
REMARK    4  A    between atoms: N1_14  and  C17_15 
REMARK    5  A    between atoms: C14_16  and  C13_19 
ROOT
ATOM      1  C17 FTA A   1       0.598  17.622  16.320  1.00  0.00     0.142 C 
ATOM      2  C14 FTA A   1      -0.501  16.963  15.904  1.00  0.00     0.158 C 
ATOM      3  C18 FTA A   1      -1.816  17.411  16.312  1.00  0.00     0.069 C 
ATOM      4  N21 FTA A   1      -2.804  17.849  16.765  1.00  0.00    -0.197 NA
ENDROOT
BRANCH   2   5
ATOM      5  C13 FTA A   1      -0.353  15.788  15.015  1.00  0.00     0.197 A 
ATOM      6  N15 FTA A   1       0.778  15.456  14.273  1.00  0.00    -0.093 NA
ATOM      7  N19 FTA A   1       0.479  14.312  13.545  1.00  0.00    -0.231 N 
ATOM      8  N20 FTA A   1      -0.824  13.925  13.819  1.00  0.00    -0.017 NA
ATOM      9  H15 FTA A   1       1.123  13.827  12.902  1.00  0.00     0.200 HD
ATOM     10  N16 FTA A   1      -1.339  14.833  14.739  1.00  0.00    -0.090 NA
ENDBRANCH   2   5
BRANCH   1  11
ATOM     11  N1  FTA A   1       1.586  16.929  16.919  1.00  0.00    -0.389 N 
ATOM     12  H11 FTA A   1       1.571  15.903  16.826  1.00  0.00     0.159 HD
BRANCH  11  13
ATOM     13  C2  FTA A   1       2.647  17.505  17.669  1.00  0.00     0.028 A 
ATOM     14  C4  FTA A   1       3.617  16.728  18.298  1.00  0.00     0.031 A 
ATOM     15  C6  FTA A   1       4.494  17.338  19.205  1.00  0.00     0.031 A 
ATOM     16  C7  FTA A   1       4.425  18.697  19.501  1.00  0.00     0.032 A 
ATOM     17  C5  FTA A   1       3.472  19.459  18.850  1.00  0.00     0.031 A 
ATOM     18  C3  FTA A   1       2.585  18.871  17.957  1.00  0.00     0.031 A 
BRANCH  16  19
ATOM     19  N8  FTA A   1       5.155  19.291  20.562  1.00  0.00    -0.356 N 
ATOM     20  H1  FTA A   1       4.708  20.071  21.064  1.00  0.00     0.166 HD
BRANCH  19  21
ATOM     21  C24 FTA A   1       6.459  18.897  20.990  1.00  0.00     0.032 A 
ATOM     22  C26 FTA A   1       6.684  18.407  22.255  1.00  0.00     0.029 A 
ATOM     23  C28 FTA A   1       7.989  18.207  22.665  1.00  0.00     0.002 A 
ATOM     24  C30 FTA A   1       9.073  18.453  21.840  1.00  0.00     0.000 A 
ATOM     25  C29 FTA A   1       8.860  18.905  20.565  1.00  0.00     0.002 A 
ATOM     26  C27 FTA A   1       7.540  19.111  20.148  1.00  0.00     0.029 A 
ENDBRANCH  19  21
ENDBRANCH  16  19
ENDBRANCH  11  13
ENDBRANCH   1  11
TORSDOF 5
ENDMDL
MODEL 6
REMARK VINA RESULT:    -5.387      1.346      1.376
REMARK INTER + INTRA:          -7.934
REMARK INTER:                  -6.951
REMARK INTRA:                  -0.983
REMARK UNBOUND:                -0.972
REMARK  5 active torsions:
REMARK  status: ('A' for Active; 'I' for Inactive)
REMARK    1  A    between atoms: N8_1  and  C24_2 
REMARK    2  A    between atoms: N8_1  and  C7_8 
REMARK    3  A    between atoms: C2_13  and  N1_14 
REMARK    4  A    between atoms: N1_14  and  C17_15 
REMARK    5  A    between atoms: C14_16  and  C13_19 
ROOT
ATOM      1  C17 FTA A   1       1.365  17.643  15.873  1.00  0.00     0.142 C 
ATOM      2  C14 FTA A   1       2.712  17.684  15.881  1.00  0.00     0.158 C 
ATOM      3  C18 FTA A   1       3.433  18.137  14.712  1.00  0.00     0.069 C 
ATOM      4  N21 FTA A   1       3.882  18.469  13.681  1.00  0.00    -0.197 NA
ENDROOT
BRANCH   2   5
ATOM      5  C13 FTA A   1       3.445  17.276  17.101  1.00  0.00     0.197 A 
ATOM      6  N15 FTA A   1       4.813  17.027  17.194  1.00  0.00    -0.093 NA
ATOM      7  N19 FTA A   1       5.077  16.628  18.498  1.00  0.00    -0.231 N 
ATOM      8  N20 FTA A   1       3.893  16.620  19.221  1.00  0.00    -0.017 NA
ATOM      9  H15 FTA A   1       6.005  16.377  18.869  1.00  0.00     0.200 HD
ATOM     10  N16 FTA A   1       2.882  17.032  18.359  1.00  0.00    -0.090 NA
ENDBRANCH   2   5
BRANCH   1  11
ATOM     11  N1  FTA A   1       0.745  16.497  16.212  1.00  0.00    -0.389 N 
ATOM     12  H11 FTA A   1       0.987  16.076  17.122  1.00  0.00     0.159 HD
BRANCH  11  13
ATOM     13  C2  FTA A   1      -0.217  15.822  15.412  1.00  0.00     0.028 A 
ATOM     14  C4  FTA A   1       0.001  14.540  14.915  1.00  0.00     0.031 A 
ATOM     15  C6  FTA A   1      -0.877  14.026  13.951  1.00  0.00     0.031 A 
ATOM     16  C7  FTA A   1      -1.960  14.758  13.471  1.00  0.00     0.032 A 
ATOM     17  C5  FTA A   1      -2.177  16.021  13.994  1.00  0.00     0.031 A 
ATOM     18  C3  FTA A   1      -1.310  16.553  14.940  1.00  0.00     0.031 A 
BRANCH  16  19
ATOM     19  N8  FTA A   1      -2.732  14.348  12.355  1.00  0.00    -0.356 N 
ATOM     20  H1  FTA A   1      -2.441  14.691  11.428  1.00  0.00     0.166 HD
BRANCH  19  21
ATOM     21  C24 FTA A   1      -3.879  13.499  12.409  1.00  0.00     0.032 A 
ATOM     22  C26 FTA A   1      -4.605  13.344  13.566  1.00  0.00     0.029 A 
ATOM     23  C28 FTA A   1      -5.595  12.380  13.602  1.00  0.00     0.002 A 
ATOM     24  C30 FTA A   1      -5.902  11.589  12.508  1.00  0.00     0.000 A 
ATOM     25  C29 FTA A   1      -5.211  11.761  11.338  1.00  0.00     0.002 A 
ATOM     26  C27 FTA A   1      -4.206  12.733  11.300  1.00  0.00     0.029 A 
ENDBRANCH  19  21
ENDBRANCH  16  19
ENDBRANCH  11  13
ENDBRANCH   1  11
TORSDOF 5
ENDMDL
MODEL 7
REMARK VINA RESULT:    -5.310      4.835      7.089
REMARK INTER + INTRA:          -7.834
REMARK INTER:                  -6.894
REMARK INTRA:                  -0.940
REMARK UNBOUND:                -0.972
REMARK  5 active torsions:
REMARK  status: ('A' for Active; 'I' for Inactive)
REMARK    1  A    between atoms: N8_1  and  C24_2 
REMARK    2  A    between atoms: N8_1  and  C7_8 
REMARK    3  A    between atoms: C2_13  and  N1_14 
REMARK    4  A    between atoms: N1_14  and  C17_15 
REMARK    5  A    between atoms: C14_16  and  C13_19 
ROOT
ATOM      1  C17 FTA A   1       8.041  17.037  17.278  1.00  0.00     0.142 C 
ATOM      2  C14 FTA A   1       9.151  17.768  17.502  1.00  0.00     0.158 C 
ATOM      3  C18 FTA A   1       9.282  18.534  18.723  1.00  0.00     0.069 C 
ATOM      4  N21 FTA A   1       9.226  19.146  19.722  1.00  0.00    -0.197 NA
ENDROOT
BRANCH   2   5
ATOM      5  C13 FTA A   1      10.239  17.768  16.498  1.00  0.00     0.197 A 
ATOM      6  N15 FTA A   1      11.450  17.087  16.598  1.00  0.00    -0.093 NA
ATOM      7  N19 FTA A   1      12.196  17.393  15.467  1.00  0.00    -0.231 N 
ATOM      8  N20 FTA A   1      11.469  18.258  14.662  1.00  0.00    -0.017 NA
ATOM      9  H15 FTA A   1      13.140  17.035  15.259  1.00  0.00     0.200 HD
ATOM     10  N16 FTA A   1      10.250  18.483  15.295  1.00  0.00    -0.090 NA
ENDBRANCH   2   5
BRANCH   1  11
ATOM     11  N1  FTA A   1       7.369  17.211  16.123  1.00  0.00    -0.389 N 
ATOM     12  H11 FTA A   1       7.899  17.117  15.245  1.00  0.00     0.159 HD
BRANCH  11  13
ATOM     13  C2  FTA A   1       5.984  17.515  16.024  1.00  0.00     0.028 A 
ATOM     14  C4  FTA A   1       5.107  17.331  17.090  1.00  0.00     0.031 A 
ATOM     15  C6  FTA A   1       3.727  17.427  16.860  1.00  0.00     0.031 A 
ATOM     16  C7  FTA A   1       3.205  17.701  15.599  1.00  0.00     0.032 A 
ATOM     17  C5  FTA A   1       4.090  17.906  14.556  1.00  0.00     0.031 A 
ATOM     18  C3  FTA A   1       5.461  17.801  14.760  1.00  0.00     0.031 A 
BRANCH  16  19
ATOM     19  N8  FTA A   1       1.822  17.597  15.299  1.00  0.00    -0.356 N 
ATOM     20  H1  FTA A   1       1.234  18.421  15.491  1.00  0.00     0.166 HD
BRANCH  19  21
ATOM     21  C24 FTA A   1       1.178  16.445  14.755  1.00  0.00     0.032 A 
ATOM     22  C26 FTA A   1       0.981  16.302  13.401  1.00  0.00     0.029 A 
ATOM     23  C28 FTA A   1       0.202  15.253  12.953  1.00  0.00     0.002 A 
ATOM     24  C30 FTA A   1      -0.360  14.324  13.813  1.00  0.00     0.000 A 
ATOM     25  C29 FTA A   1      -0.139  14.434  15.160  1.00  0.00     0.002 A 
ATOM     26  C27 FTA A   1       0.646  15.498  15.617  1.00  0.00     0.029 A 
ENDBRANCH  19  21
ENDBRANCH  16  19
ENDBRANCH  11  13
ENDBRANCH   1  11
TORSDOF 5
ENDMDL
MODEL 8
REMARK VINA RESULT:    -5.306      3.067      5.552
REMARK INTER + INTRA:          -7.830
REMARK INTER:                  -6.876
REMARK INTRA:                  -0.954
REMARK UNBOUND:                -0.972
REMARK  5 active torsions:
REMARK  status: ('A' for Active; 'I' for Inactive)
REMARK    1  A    between atoms: N8_1  and  C24_2 
REMARK    2  A    between atoms: N8_1  and  C7_8 
REMARK    3  A    between atoms: C2_13  and  N1_14 
REMARK    4  A    between atoms: N1_14  and  C17_15 
REMARK    5  A    between atoms: C14_16  and  C13_19 
ROOT
ATOM      1  C17 FTA A   1       6.240  18.781  18.296  1.00  0.00     0.142 C 
ATOM      2  C14 FTA A   1       7.238  18.893  19.195  1.00  0.00     0.158 C 
ATOM      3  C18 FTA A   1       8.588  19.165  18.752  1.00  0.00     0.069 C 
ATOM      4  N21 FTA A   1       9.635  19.328  18.249  1.00  0.00    -0.197 NA
ENDROOT
BRANCH   2   5
ATOM      5  C13 FTA A   1       6.937  18.751  20.638  1.00  0.00     0.197 A 
ATOM      6  N15 FTA A   1       5.694  18.455  21.194  1.00  0.00    -0.093 NA
ATOM      7  N19 FTA A   1       5.842  18.461  22.575  1.00  0.00    -0.231 N 
ATOM      8  N20 FTA A   1       7.159  18.760  22.890  1.00  0.00    -0.017 NA
ATOM      9  H15 FTA A   1       5.092  18.274  23.256  1.00  0.00     0.200 HD
ATOM     10  N16 FTA A   1       7.843  18.929  21.690  1.00  0.00    -0.090 NA
ENDBRANCH   2   5
BRANCH   1  11
ATOM     11  N1  FTA A   1       5.460  17.683  18.322  1.00  0.00    -0.389 N 
ATOM     12  H11 FTA A   1       5.654  16.979  19.049  1.00  0.00     0.159 HD
BRANCH  11  13
ATOM     13  C2  FTA A   1       4.389  17.423  17.424  1.00  0.00     0.028 A 
ATOM     14  C4  FTA A   1       4.435  17.803  16.085  1.00  0.00     0.031 A 
ATOM     15  C6  FTA A   1       3.267  17.726  15.316  1.00  0.00     0.031 A 
ATOM     16  C7  FTA A   1       2.058  17.283  15.847  1.00  0.00     0.032 A 
ATOM     17  C5  FTA A   1       2.035  16.885  17.172  1.00  0.00     0.031 A 
ATOM     18  C3  FTA A   1       3.179  16.966  17.956  1.00  0.00     0.031 A 
BRANCH  16  19
ATOM     19  N8  FTA A   1       0.826  17.394  15.154  1.00  0.00    -0.356 N 
ATOM     20  H1  FTA A   1       0.498  18.342  14.921  1.00  0.00     0.166 HD
BRANCH  19  21
ATOM     21  C24 FTA A   1       0.002  16.299  14.753  1.00  0.00     0.032 A 
ATOM     22  C26 FTA A   1       0.514  15.229  14.058  1.00  0.00     0.029 A 
ATOM     23  C28 FTA A   1      -0.362  14.288  13.550  1.00  0.00     0.002 A 
ATOM     24  C30 FTA A   1      -1.731  14.369  13.741  1.00  0.00     0.000 A 
ATOM     25  C29 FTA A   1      -2.250  15.410  14.464  1.00  0.00     0.002 A 
ATOM     26  C27 FTA A   1      -1.365  16.365  14.977  1.00  0.00     0.029 A 
ENDBRANCH  19  21
ENDBRANCH  16  19
ENDBRANCH  11  13
ENDBRANCH   1  11
TORSDOF 5
ENDMDL
MODEL 9
REMARK VINA RESULT:    -5.296      2.114      2.982
REMARK INTER + INTRA:          -7.816
REMARK INTER:                  -6.844
REMARK INTRA:                  -0.972
REMARK UNBOUND:                -0.972
REMARK  5 active torsions:
REMARK  status: ('A' for Active; 'I' for Inactive)
REMARK    1  A    between atoms: N8_1  and  C24_2 
REMARK    2  A    between atoms: N8_1  and  C7_8 
REMARK    3  A    between atoms: C2_13  and  N1_14 
REMARK    4  A    between atoms: N1_14  and  C17_15 
REMARK    5  A    between atoms: C14_16  and  C13_19 
ROOT
ATOM      1  C17 FTA A   1       3.832  18.513  15.496  1.00  0.00     0.142 C 
ATOM      2  C14 FTA A   1       4.799  17.771  16.071  1.00  0.00     0.158 C 
ATOM      3  C18 FTA A   1       5.873  17.228  15.268  1.00  0.00     0.069 C 
ATOM      4  N21 FTA A   1       6.643  16.808  14.490  1.00  0.00    -0.197 NA
ENDROOT
BRANCH   2   5
ATOM      5  C13 FTA A   1       4.762  17.531  17.532  1.00  0.00     0.197 A 
ATOM      6  N15 FTA A   1       4.066  16.513  18.181  1.00  0.00    -0.093 NA
ATOM      7  N19 FTA A   1       4.262  16.678  19.546  1.00  0.00    -0.231 N 
ATOM      8  N20 FTA A   1       5.068  17.786  19.760  1.00  0.00    -0.017 NA
ATOM      9  H15 FTA A   1       3.870  16.073  20.282  1.00  0.00     0.200 HD
ATOM     10  N16 FTA A   1       5.388  18.311  18.512  1.00  0.00    -0.090 NA
ENDBRANCH   2   5
BRANCH   1  11
ATOM     11  N1  FTA A   1       2.544  18.176  15.701  1.00  0.00    -0.389 N 
ATOM     12  H11 FTA A   1       1.975  18.802  16.290  1.00  0.00     0.159 HD
BRANCH  11  13
ATOM     13  C2  FTA A   1       1.909  17.021  15.167  1.00  0.00     0.028 A 
ATOM     14  C4  FTA A   1       1.821  16.791  13.797  1.00  0.00     0.031 A 
ATOM     15  C6  FTA A   1       0.988  15.764  13.332  1.00  0.00     0.031 A 
ATOM     16  C7  FTA A   1       0.244  14.966  14.197  1.00  0.00     0.032 A 
ATOM     17  C5  FTA A   1       0.362  15.191  15.557  1.00  0.00     0.031 A 
ATOM     18  C3  FTA A   1       1.171  16.213  16.037  1.00  0.00     0.031 A 
BRANCH  16  19
ATOM     19  N8  FTA A   1      -0.757  14.068  13.746  1.00  0.00    -0.356 N 
ATOM     20  H1  FTA A   1      -0.457  13.115  13.493  1.00  0.00     0.166 HD
BRANCH  19  21
ATOM     21  C24 FTA A   1      -2.145  14.375  13.613  1.00  0.00     0.032 A 
ATOM     22  C26 FTA A   1      -2.740  15.360  14.366  1.00  0.00     0.029 A 
ATOM     23  C28 FTA A   1      -4.115  15.491  14.317  1.00  0.00     0.002 A 
ATOM     24  C30 FTA A   1      -4.909  14.689  13.515  1.00  0.00     0.000 A 
ATOM     25  C29 FTA A   1      -4.325  13.729  12.732  1.00  0.00     0.002 A 
ATOM     26  C27 FTA A   1      -2.933  13.592  12.783  1.00  0.00     0.029 A 
ENDBRANCH  19  21
ENDBRANCH  16  19
ENDBRANCH  11  13
ENDBRANCH   1  11
TORSDOF 5
ENDMDL
