MODEL 1
REMARK VINA RESULT:    -6.438      0.000      0.000
REMARK INTER + INTRA:          -9.169
REMARK INTER:                  -8.017
REMARK INTRA:                  -1.153
REMARK UNBOUND:                -0.849
REMARK  5 active torsions:
REMARK  status: ('A' for Active; 'I' for Inactive)
REMARK    1  A    between atoms: N8_1  and  C24_2 
REMARK    2  A    between atoms: N8_1  and  C7_8 
REMARK    3  A    between atoms: C2_13  and  N1_14 
REMARK    4  A    between atoms: N1_14  and  C17_15 
REMARK    5  A    between atoms: C14_16  and  C13_19 
ROOT
ATOM      1  C17 FTA A   1       3.967  12.124  10.702  1.00  0.00     0.142 C 
ATOM      2  C14 FTA A   1       3.510  11.587   9.553  1.00  0.00     0.158 C 
ATOM      3  C18 FTA A   1       3.238  10.168   9.472  1.00  0.00     0.069 C 
ATOM      4  N21 FTA A   1       3.118   9.003   9.534  1.00  0.00    -0.197 NA
ENDROOT
BRANCH   2   5
ATOM      5  C13 FTA A   1       3.273  12.463   8.383  1.00  0.00     0.197 A 
ATOM      6  N15 FTA A   1       2.549  12.130   7.240  1.00  0.00    -0.093 NA
ATOM      7  N19 FTA A   1       2.613  13.215   6.375  1.00  0.00    -0.231 N 
ATOM      8  N20 FTA A   1       3.368  14.220   6.960  1.00  0.00    -0.017 NA
ATOM      9  H15 FTA A   1       2.169  13.265   5.446  1.00  0.00     0.200 HD
ATOM     10  N16 FTA A   1       3.769  13.760   8.210  1.00  0.00    -0.090 NA
ENDBRANCH   2   5
BRANCH   1  11
ATOM     11  N1  FTA A   1       5.086  12.873  10.670  1.00  0.00    -0.389 N 
ATOM     12  H11 FTA A   1       4.989  13.882  10.855  1.00  0.00     0.159 HD
BRANCH  11  13
ATOM     13  C2  FTA A   1       6.391  12.378  10.401  1.00  0.00     0.028 A 
ATOM     14  C4  FTA A   1       7.116  12.772   9.279  1.00  0.00     0.031 A 
ATOM     15  C6  FTA A   1       8.289  12.079   8.950  1.00  0.00     0.031 A 
ATOM     16  C7  FTA A   1       8.753  11.007   9.708  1.00  0.00     0.032 A 
ATOM     17  C5  FTA A   1       8.034  10.644  10.834  1.00  0.00     0.031 A 
ATOM     18  C3  FTA A   1       6.862  11.310  11.169  1.00  0.00     0.031 A 
BRANCH  16  19
ATOM     19  N8  FTA A   1       9.811  10.164   9.283  1.00  0.00    -0.356 N 
ATOM     20  H1  FTA A   1       9.554   9.289   8.802  1.00  0.00     0.166 HD
BRANCH  19  21
ATOM     21  C24 FTA A   1      11.202  10.428   9.465  1.00  0.00     0.032 A 
ATOM     22  C26 FTA A   1      12.164   9.523   9.080  1.00  0.00     0.029 A 
ATOM     23  C28 FTA A   1      13.477   9.760   9.439  1.00  0.00     0.002 A 
ATOM     24  C30 FTA A   1      13.863  10.888  10.143  1.00  0.00     0.000 A 
ATOM     25  C29 FTA A   1      12.920  11.816  10.499  1.00  0.00     0.002 A 
ATOM     26  C27 FTA A   1      11.589  11.577  10.140  1.00  0.00     0.029 A 
ENDBRANCH  19  21
ENDBRANCH  16  19
ENDBRANCH  11  13
ENDBRANCH   1  11
TORSDOF 5
ENDMDL
MODEL 2
REMARK VINA RESULT:    -6.212      1.441      2.112
REMARK INTER + INTRA:          -8.877
REMARK INTER:                  -7.661
REMARK INTRA:                  -1.216
REMARK UNBOUND:                -0.849
REMARK  5 active torsions:
REMARK  status: ('A' for Active; 'I' for Inactive)
REMARK    1  A    between atoms: N8_1  and  C24_2 
REMARK    2  A    between atoms: N8_1  and  C7_8 
REMARK    3  A    between atoms: C2_13  and  N1_14 
REMARK    4  A    between atoms: N1_14  and  C17_15 
REMARK    5  A    between atoms: C14_16  and  C13_19 
ROOT
ATOM      1  C17 FTA A   1       4.918  12.805  11.437  1.00  0.00     0.142 C 
ATOM      2  C14 FTA A   1       4.328  12.691  10.231  1.00  0.00     0.158 C 
ATOM      3  C18 FTA A   1       3.589  11.494   9.893  1.00  0.00     0.069 C 
ATOM      4  N21 FTA A   1       3.076  10.451   9.737  1.00  0.00    -0.197 NA
ENDROOT
BRANCH   2   5
ATOM      5  C13 FTA A   1       4.429  13.807   9.263  1.00  0.00     0.197 A 
ATOM      6  N15 FTA A   1       5.202  14.957   9.411  1.00  0.00    -0.093 NA
ATOM      7  N19 FTA A   1       4.973  15.760   8.301  1.00  0.00    -0.231 N 
ATOM      8  N20 FTA A   1       4.065  15.130   7.463  1.00  0.00    -0.017 NA
ATOM      9  H15 FTA A   1       5.408  16.678   8.128  1.00  0.00     0.200 HD
ATOM     10  N16 FTA A   1       3.735  13.913   8.052  1.00  0.00    -0.090 NA
ENDBRANCH   2   5
BRANCH   1  11
ATOM     11  N1  FTA A   1       6.227  13.120  11.495  1.00  0.00    -0.389 N 
ATOM     12  H11 FTA A   1       6.478  14.041  11.883  1.00  0.00     0.159 HD
BRANCH  11  13
ATOM     13  C2  FTA A   1       7.288  12.279  11.062  1.00  0.00     0.028 A 
ATOM     14  C4  FTA A   1       8.206  12.682  10.096  1.00  0.00     0.031 A 
ATOM     15  C6  FTA A   1       9.079  11.732   9.549  1.00  0.00     0.031 A 
ATOM     16  C7  FTA A   1       9.057  10.396   9.939  1.00  0.00     0.032 A 
ATOM     17  C5  FTA A   1       8.156  10.016  10.918  1.00  0.00     0.031 A 
ATOM     18  C3  FTA A   1       7.273  10.940  11.462  1.00  0.00     0.031 A 
BRANCH  16  19
ATOM     19  N8  FTA A   1       9.779   9.383   9.257  1.00  0.00    -0.356 N 
ATOM     20  H1  FTA A   1       9.369   8.438   9.244  1.00  0.00     0.166 HD
BRANCH  19  21
ATOM     21  C24 FTA A   1      11.027   9.565   8.587  1.00  0.00     0.032 A 
ATOM     22  C26 FTA A   1      12.189   9.803   9.282  1.00  0.00     0.029 A 
ATOM     23  C28 FTA A   1      13.326  10.141   8.573  1.00  0.00     0.002 A 
ATOM     24  C30 FTA A   1      13.345  10.219   7.191  1.00  0.00     0.000 A 
ATOM     25  C29 FTA A   1      12.203   9.948   6.486  1.00  0.00     0.002 A 
ATOM     26  C27 FTA A   1      11.049   9.608   7.201  1.00  0.00     0.029 A 
ENDBRANCH  19  21
ENDBRANCH  16  19
ENDBRANCH  11  13
ENDBRANCH   1  11
TORSDOF 5
ENDMDL
MODEL 3
REMARK VINA RESULT:    -6.174      1.787      2.974
REMARK INTER + INTRA:          -8.828
REMARK INTER:                  -7.767
REMARK INTRA:                  -1.061
REMARK UNBOUND:                -0.849
REMARK  5 active torsions:
REMARK  status: ('A' for Active; 'I' for Inactive)
REMARK    1  A    between atoms: N8_1  and  C24_2 
REMARK    2  A    between atoms: N8_1  and  C7_8 
REMARK    3  A    between atoms: C2_13  and  N1_14 
REMARK    4  A    between atoms: N1_14  and  C17_15 
REMARK    5  A    between atoms: C14_16  and  C13_19 
ROOT
ATOM      1  C17 FTA A   1       5.927  13.923  11.571  1.00  0.00     0.142 C 
ATOM      2  C14 FTA A   1       4.619  13.878  11.248  1.00  0.00     0.158 C 
ATOM      3  C18 FTA A   1       3.707  14.875  11.766  1.00  0.00     0.069 C 
ATOM      4  N21 FTA A   1       3.080  15.708  12.302  1.00  0.00    -0.197 NA
ENDROOT
BRANCH   2   5
ATOM      5  C13 FTA A   1       4.129  12.811  10.346  1.00  0.00     0.197 A 
ATOM      6  N15 FTA A   1       3.812  12.956   8.997  1.00  0.00    -0.093 NA
ATOM      7  N19 FTA A   1       3.349  11.728   8.542  1.00  0.00    -0.231 N 
ATOM      8  N20 FTA A   1       3.369  10.818   9.589  1.00  0.00    -0.017 NA
ATOM      9  H15 FTA A   1       3.039  11.525   7.581  1.00  0.00     0.200 HD
ATOM     10  N16 FTA A   1       3.863  11.485  10.706  1.00  0.00    -0.090 NA
ENDBRANCH   2   5
BRANCH   1  11
ATOM     11  N1  FTA A   1       6.510  12.821  12.083  1.00  0.00    -0.389 N 
ATOM     12  H11 FTA A   1       6.221  12.524  13.026  1.00  0.00     0.159 HD
BRANCH  11  13
ATOM     13  C2  FTA A   1       7.492  12.037  11.420  1.00  0.00     0.028 A 
ATOM     14  C4  FTA A   1       8.386  12.587  10.504  1.00  0.00     0.031 A 
ATOM     15  C6  FTA A   1       9.169  11.729   9.719  1.00  0.00     0.031 A 
ATOM     16  C7  FTA A   1       9.081  10.343   9.824  1.00  0.00     0.032 A 
ATOM     17  C5  FTA A   1       8.207   9.813  10.756  1.00  0.00     0.031 A 
ATOM     18  C3  FTA A   1       7.412  10.646  11.534  1.00  0.00     0.031 A 
BRANCH  16  19
ATOM     19  N8  FTA A   1       9.703   9.461   8.903  1.00  0.00    -0.356 N 
ATOM     20  H1  FTA A   1       9.153   8.652   8.580  1.00  0.00     0.166 HD
BRANCH  19  21
ATOM     21  C24 FTA A   1      11.027   9.603   8.389  1.00  0.00     0.032 A 
ATOM     22  C26 FTA A   1      12.111   9.757   9.220  1.00  0.00     0.029 A 
ATOM     23  C28 FTA A   1      13.337  10.061   8.661  1.00  0.00     0.002 A 
ATOM     24  C30 FTA A   1      13.520  10.185   7.294  1.00  0.00     0.000 A 
ATOM     25  C29 FTA A   1      12.456   9.995   6.452  1.00  0.00     0.002 A 
ATOM     26  C27 FTA A   1      11.212   9.691   7.016  1.00  0.00     0.029 A 
ENDBRANCH  19  21
ENDBRANCH  16  19
ENDBRANCH  11  13
ENDBRANCH   1  11
TORSDOF 5
ENDMDL
MODEL 4
REMARK VINA RESULT:    -6.080      2.759      8.078
REMARK INTER + INTRA:          -8.706
REMARK INTER:                  -7.726
REMARK INTRA:                  -0.980
REMARK UNBOUND:                -0.849
REMARK  5 active torsions:
REMARK  status: ('A' for Active; 'I' for Inactive)
REMARK    1  A    between atoms: N8_1  and  C24_2 
REMARK    2  A    between atoms: N8_1  and  C7_8 
REMARK    3  A    between atoms: C2_13  and  N1_14 
REMARK    4  A    between atoms: N1_14  and  C17_15 
REMARK    5  A    between atoms: C14_16  and  C13_19 
ROOT
ATOM      1  C17 FTA A   1       9.451  10.634   8.971  1.00  0.00     0.142 C 
ATOM      2  C14 FTA A   1      10.584   9.976   8.653  1.00  0.00     0.158 C 
ATOM      3  C18 FTA A   1      10.576   8.977   7.606  1.00  0.00     0.069 C 
ATOM      4  N21 FTA A   1      10.408   8.160   6.782  1.00  0.00    -0.197 NA
ENDROOT
BRANCH   2   5
ATOM      5  C13 FTA A   1      11.838  10.295   9.374  1.00  0.00     0.197 A 
ATOM      6  N15 FTA A   1      12.970   9.487   9.452  1.00  0.00    -0.093 NA
ATOM      7  N19 FTA A   1      13.894  10.138  10.258  1.00  0.00    -0.231 N 
ATOM      8  N20 FTA A   1      13.354  11.342  10.688  1.00  0.00    -0.017 NA
ATOM      9  H15 FTA A   1      14.831   9.784  10.500  1.00  0.00     0.200 HD
ATOM     10  N16 FTA A   1      12.083  11.446  10.132  1.00  0.00    -0.090 NA
ENDBRANCH   2   5
BRANCH   1  11
ATOM     11  N1  FTA A   1       9.049  10.655  10.256  1.00  0.00    -0.389 N 
ATOM     12  H11 FTA A   1       9.730  10.365  10.973  1.00  0.00     0.159 HD
BRANCH  11  13
ATOM     13  C2  FTA A   1       7.756  11.048  10.699  1.00  0.00     0.028 A 
ATOM     14  C4  FTA A   1       6.592  10.590  10.088  1.00  0.00     0.031 A 
ATOM     15  C6  FTA A   1       5.369  11.189  10.418  1.00  0.00     0.031 A 
ATOM     16  C7  FTA A   1       5.280  12.231  11.338  1.00  0.00     0.032 A 
ATOM     17  C5  FTA A   1       6.443  12.658  11.955  1.00  0.00     0.031 A 
ATOM     18  C3  FTA A   1       7.667  12.086  11.631  1.00  0.00     0.031 A 
BRANCH  16  19
ATOM     19  N8  FTA A   1       4.096  12.988  11.532  1.00  0.00    -0.356 N 
ATOM     20  H1  FTA A   1       3.284  12.499  11.935  1.00  0.00     0.166 HD
BRANCH  19  21
ATOM     21  C24 FTA A   1       3.938  14.371  11.214  1.00  0.00     0.032 A 
ATOM     22  C26 FTA A   1       4.444  14.906  10.053  1.00  0.00     0.029 A 
ATOM     23  C28 FTA A   1       4.410  16.277   9.886  1.00  0.00     0.002 A 
ATOM     24  C30 FTA A   1       3.856  17.127  10.829  1.00  0.00     0.000 A 
ATOM     25  C29 FTA A   1       3.314  16.603  11.972  1.00  0.00     0.002 A 
ATOM     26  C27 FTA A   1       3.351  15.215  12.146  1.00  0.00     0.029 A 
ENDBRANCH  19  21
ENDBRANCH  16  19
ENDBRANCH  11  13
ENDBRANCH   1  11
TORSDOF 5
ENDMDL
MODEL 5
REMARK VINA RESULT:    -5.964      6.382     11.493
REMARK INTER + INTRA:          -8.557
REMARK INTER:                  -7.708
REMARK INTRA:                  -0.849
REMARK UNBOUND:                -0.849
REMARK  5 active torsions:
REMARK  status: ('A' for Active; 'I' for Inactive)
REMARK    1  A    between atoms: N8_1  and  C24_2 
REMARK    2  A    between atoms: N8_1  and  C7_8 
REMARK    3  A    between atoms: C2_13  and  N1_14 
REMARK    4  A    between atoms: N1_14  and  C17_15 
REMARK    5  A    between atoms: C14_16  and  C13_19 
ROOT
ATOM      1  C17 FTA A   1       3.424  15.354  12.079  1.00  0.00     0.142 C 
ATOM      2  C14 FTA A   1       4.316  14.861  11.196  1.00  0.00     0.158 C 
ATOM      3  C18 FTA A   1       4.408  15.422   9.866  1.00  0.00     0.069 C 
ATOM      4  N21 FTA A   1       4.332  15.932   8.813  1.00  0.00    -0.197 NA
ENDROOT
BRANCH   2   5
ATOM      5  C13 FTA A   1       5.209  13.753  11.605  1.00  0.00     0.197 A 
ATOM      6  N15 FTA A   1       6.521  13.878  12.057  1.00  0.00    -0.093 NA
ATOM      7  N19 FTA A   1       7.008  12.598  12.287  1.00  0.00    -0.231 N 
ATOM      8  N20 FTA A   1       6.019  11.673  11.983  1.00  0.00    -0.017 NA
ATOM      9  H15 FTA A   1       7.953  12.370  12.629  1.00  0.00     0.200 HD
ATOM     10  N16 FTA A   1       4.899  12.388  11.571  1.00  0.00    -0.090 NA
ENDBRANCH   2   5
BRANCH   1  11
ATOM     11  N1  FTA A   1       2.573  14.506  12.688  1.00  0.00    -0.389 N 
ATOM     12  H11 FTA A   1       2.745  13.496  12.574  1.00  0.00     0.159 HD
BRANCH  11  13
ATOM     13  C2  FTA A   1       1.456  14.898  13.475  1.00  0.00     0.028 A 
ATOM     14  C4  FTA A   1       0.990  14.125  14.536  1.00  0.00     0.031 A 
ATOM     15  C6  FTA A   1      -0.243  14.446  15.120  1.00  0.00     0.031 A 
ATOM     16  C7  FTA A   1      -1.019  15.511  14.673  1.00  0.00     0.032 A 
ATOM     17  C5  FTA A   1      -0.530  16.284  13.634  1.00  0.00     0.031 A 
ATOM     18  C3  FTA A   1       0.683  15.975  13.033  1.00  0.00     0.031 A 
BRANCH  16  19
ATOM     19  N8  FTA A   1      -2.353  15.726  15.103  1.00  0.00    -0.356 N 
ATOM     20  H1  FTA A   1      -2.493  16.335  15.922  1.00  0.00     0.166 HD
BRANCH  19  21
ATOM     21  C24 FTA A   1      -3.518  15.167  14.496  1.00  0.00     0.032 A 
ATOM     22  C26 FTA A   1      -3.429  14.245  13.479  1.00  0.00     0.029 A 
ATOM     23  C28 FTA A   1      -4.584  13.874  12.819  1.00  0.00     0.002 A 
ATOM     24  C30 FTA A   1      -5.830  14.371  13.163  1.00  0.00     0.000 A 
ATOM     25  C29 FTA A   1      -5.937  15.261  14.199  1.00  0.00     0.002 A 
ATOM     26  C27 FTA A   1      -4.768  15.641  14.868  1.00  0.00     0.029 A 
ENDBRANCH  19  21
ENDBRANCH  16  19
ENDBRANCH  11  13
ENDBRANCH   1  11
TORSDOF 5
ENDMDL
MODEL 6
REMARK VINA RESULT:    -5.926      1.505      2.568
REMARK INTER + INTRA:          -8.507
REMARK INTER:                  -7.632
REMARK INTRA:                  -0.875
REMARK UNBOUND:                -0.849
REMARK  5 active torsions:
REMARK  status: ('A' for Active; 'I' for Inactive)
REMARK    1  A    between atoms: N8_1  and  C24_2 
REMARK    2  A    between atoms: N8_1  and  C7_8 
REMARK    3  A    between atoms: C2_13  and  N1_14 
REMARK    4  A    between atoms: N1_14  and  C17_15 
REMARK    5  A    between atoms: C14_16  and  C13_19 
ROOT
ATOM      1  C17 FTA A   1       5.663  13.773  11.661  1.00  0.00     0.142 C 
ATOM      2  C14 FTA A   1       4.519  14.255  11.136  1.00  0.00     0.158 C 
ATOM      3  C18 FTA A   1       3.738  15.231  11.865  1.00  0.00     0.069 C 
ATOM      4  N21 FTA A   1       3.183  15.968  12.589  1.00  0.00    -0.197 NA
ENDROOT
BRANCH   2   5
ATOM      5  C13 FTA A   1       4.078  13.790   9.801  1.00  0.00     0.197 A 
ATOM      6  N15 FTA A   1       3.669  12.499   9.474  1.00  0.00    -0.093 NA
ATOM      7  N19 FTA A   1       3.387  12.482   8.114  1.00  0.00    -0.231 N 
ATOM      8  N20 FTA A   1       3.617  13.743   7.586  1.00  0.00    -0.017 NA
ATOM      9  H15 FTA A   1       3.059  11.662   7.582  1.00  0.00     0.200 HD
ATOM     10  N16 FTA A   1       4.035  14.559   8.632  1.00  0.00    -0.090 NA
ENDBRANCH   2   5
BRANCH   1  11
ATOM     11  N1  FTA A   1       5.826  12.439  11.752  1.00  0.00    -0.389 N 
ATOM     12  H11 FTA A   1       5.250  11.934  12.441  1.00  0.00     0.159 HD
BRANCH  11  13
ATOM     13  C2  FTA A   1       6.733  11.674  10.968  1.00  0.00     0.028 A 
ATOM     14  C4  FTA A   1       7.250  10.458  11.408  1.00  0.00     0.031 A 
ATOM     15  C6  FTA A   1       8.307   9.872  10.699  1.00  0.00     0.031 A 
ATOM     16  C7  FTA A   1       8.858  10.467   9.567  1.00  0.00     0.032 A 
ATOM     17  C5  FTA A   1       8.316  11.662   9.128  1.00  0.00     0.031 A 
ATOM     18  C3  FTA A   1       7.278  12.266   9.825  1.00  0.00     0.031 A 
BRANCH  16  19
ATOM     19  N8  FTA A   1      10.054  10.005   8.960  1.00  0.00    -0.356 N 
ATOM     20  H1  FTA A   1       9.960   9.341   8.177  1.00  0.00     0.166 HD
BRANCH  19  21
ATOM     21  C24 FTA A   1      11.376  10.383   9.343  1.00  0.00     0.032 A 
ATOM     22  C26 FTA A   1      12.454   9.560   9.120  1.00  0.00     0.029 A 
ATOM     23  C28 FTA A   1      13.675   9.905   9.667  1.00  0.00     0.002 A 
ATOM     24  C30 FTA A   1      13.859  11.062  10.404  1.00  0.00     0.000 A 
ATOM     25  C29 FTA A   1      12.801  11.910  10.602  1.00  0.00     0.002 A 
ATOM     26  C27 FTA A   1      11.562  11.561  10.052  1.00  0.00     0.029 A 
ENDBRANCH  19  21
ENDBRANCH  16  19
ENDBRANCH  11  13
ENDBRANCH   1  11
TORSDOF 5
ENDMDL
MODEL 7
REMARK VINA RESULT:    -5.918      8.609     12.846
REMARK INTER + INTRA:          -8.497
REMARK INTER:                  -7.533
REMARK INTRA:                  -0.965
REMARK UNBOUND:                -0.849
REMARK  5 active torsions:
REMARK  status: ('A' for Active; 'I' for Inactive)
REMARK    1  A    between atoms: N8_1  and  C24_2 
REMARK    2  A    between atoms: N8_1  and  C7_8 
REMARK    3  A    between atoms: C2_13  and  N1_14 
REMARK    4  A    between atoms: N1_14  and  C17_15 
REMARK    5  A    between atoms: C14_16  and  C13_19 
ROOT
ATOM      1  C17 FTA A   1       3.888  16.868  16.235  1.00  0.00     0.142 C 
ATOM      2  C14 FTA A   1       4.969  16.563  16.980  1.00  0.00     0.158 C 
ATOM      3  C18 FTA A   1       6.253  16.352  16.347  1.00  0.00     0.069 C 
ATOM      4  N21 FTA A   1       7.209  16.154  15.698  1.00  0.00    -0.197 NA
ENDROOT
BRANCH   2   5
ATOM      5  C13 FTA A   1       4.834  16.462  18.451  1.00  0.00     0.197 A 
ATOM      6  N15 FTA A   1       4.194  15.440  19.150  1.00  0.00    -0.093 NA
ATOM      7  N19 FTA A   1       4.257  15.755  20.501  1.00  0.00    -0.231 N 
ATOM      8  N20 FTA A   1       4.925  16.961  20.657  1.00  0.00    -0.017 NA
ATOM      9  H15 FTA A   1       3.869  15.184  21.266  1.00  0.00     0.200 HD
ATOM     10  N16 FTA A   1       5.293  17.395  19.388  1.00  0.00    -0.090 NA
ENDBRANCH   2   5
BRANCH   1  11
ATOM     11  N1  FTA A   1       2.772  16.127  16.373  1.00  0.00    -0.389 N 
ATOM     12  H11 FTA A   1       2.581  15.723  17.301  1.00  0.00     0.159 HD
BRANCH  11  13
ATOM     13  C2  FTA A   1       1.838  15.860  15.335  1.00  0.00     0.028 A 
ATOM     14  C4  FTA A   1       1.465  16.828  14.406  1.00  0.00     0.031 A 
ATOM     15  C6  FTA A   1       0.378  16.574  13.559  1.00  0.00     0.031 A 
ATOM     16  C7  FTA A   1      -0.344  15.384  13.617  1.00  0.00     0.032 A 
ATOM     17  C5  FTA A   1       0.055  14.422  14.528  1.00  0.00     0.031 A 
ATOM     18  C3  FTA A   1       1.122  14.660  15.386  1.00  0.00     0.031 A 
BRANCH  16  19
ATOM     19  N8  FTA A   1      -1.565  15.191  12.923  1.00  0.00    -0.356 N 
ATOM     20  H1  FTA A   1      -1.522  15.146  11.894  1.00  0.00     0.166 HD
BRANCH  19  21
ATOM     21  C24 FTA A   1      -2.849  15.052  13.532  1.00  0.00     0.032 A 
ATOM     22  C26 FTA A   1      -3.717  14.051  13.164  1.00  0.00     0.029 A 
ATOM     23  C28 FTA A   1      -5.005  14.074  13.664  1.00  0.00     0.002 A 
ATOM     24  C30 FTA A   1      -5.443  15.049  14.543  1.00  0.00     0.000 A 
ATOM     25  C29 FTA A   1      -4.577  16.030  14.947  1.00  0.00     0.002 A 
ATOM     26  C27 FTA A   1      -3.273  16.012  14.440  1.00  0.00     0.029 A 
ENDBRANCH  19  21
ENDBRANCH  16  19
ENDBRANCH  11  13
ENDBRANCH   1  11
TORSDOF 5
ENDMDL
MODEL 8
REMARK VINA RESULT:    -5.885      4.262      8.860
REMARK INTER + INTRA:          -8.455
REMARK INTER:                  -7.342
REMARK INTRA:                  -1.113
REMARK UNBOUND:                -0.849
REMARK  5 active torsions:
REMARK  status: ('A' for Active; 'I' for Inactive)
REMARK    1  A    between atoms: N8_1  and  C24_2 
REMARK    2  A    between atoms: N8_1  and  C7_8 
REMARK    3  A    between atoms: C2_13  and  N1_14 
REMARK    4  A    between atoms: N1_14  and  C17_15 
REMARK    5  A    between atoms: C14_16  and  C13_19 
ROOT
ATOM      1  C17 FTA A   1       7.123  13.555  11.818  1.00  0.00     0.142 C 
ATOM      2  C14 FTA A   1       7.229  12.332  11.263  1.00  0.00     0.158 C 
ATOM      3  C18 FTA A   1       8.523  11.693  11.153  1.00  0.00     0.069 C 
ATOM      4  N21 FTA A   1       9.634  11.325  11.078  1.00  0.00    -0.197 NA
ENDROOT
BRANCH   2   5
ATOM      5  C13 FTA A   1       6.010  11.642  10.781  1.00  0.00     0.197 A 
ATOM      6  N15 FTA A   1       5.972  10.480  10.014  1.00  0.00    -0.093 NA
ATOM      7  N19 FTA A   1       4.638  10.201   9.744  1.00  0.00    -0.231 N 
ATOM      8  N20 FTA A   1       3.842  11.176  10.328  1.00  0.00    -0.017 NA
ATOM      9  H15 FTA A   1       4.295   9.399   9.196  1.00  0.00     0.200 HD
ATOM     10  N16 FTA A   1       4.691  12.064  10.981  1.00  0.00    -0.090 NA
ENDBRANCH   2   5
BRANCH   1  11
ATOM     11  N1  FTA A   1       6.491  14.529  11.134  1.00  0.00    -0.389 N 
ATOM     12  H11 FTA A   1       6.770  14.679  10.153  1.00  0.00     0.159 HD
BRANCH  11  13
ATOM     13  C2  FTA A   1       5.469  15.364  11.661  1.00  0.00     0.028 A 
ATOM     14  C4  FTA A   1       5.566  15.948  12.922  1.00  0.00     0.031 A 
ATOM     15  C6  FTA A   1       4.435  16.565  13.474  1.00  0.00     0.031 A 
ATOM     16  C7  FTA A   1       3.216  16.612  12.803  1.00  0.00     0.032 A 
ATOM     17  C5  FTA A   1       3.143  16.049  11.541  1.00  0.00     0.031 A 
ATOM     18  C3  FTA A   1       4.249  15.421  10.982  1.00  0.00     0.031 A 
BRANCH  16  19
ATOM     19  N8  FTA A   1       2.013  17.040  13.421  1.00  0.00    -0.356 N 
ATOM     20  H1  FTA A   1       1.916  18.047  13.618  1.00  0.00     0.166 HD
BRANCH  19  21
ATOM     21  C24 FTA A   1       0.927  16.192  13.793  1.00  0.00     0.032 A 
ATOM     22  C26 FTA A   1       1.103  15.127  14.645  1.00  0.00     0.029 A 
ATOM     23  C28 FTA A   1       0.055  14.245  14.828  1.00  0.00     0.002 A 
ATOM     24  C30 FTA A   1      -1.173  14.413  14.212  1.00  0.00     0.000 A 
ATOM     25  C29 FTA A   1      -1.374  15.490  13.391  1.00  0.00     0.002 A 
ATOM     26  C27 FTA A   1      -0.313  16.383  13.200  1.00  0.00     0.029 A 
ENDBRANCH  19  21
ENDBRANCH  16  19
ENDBRANCH  11  13
ENDBRANCH   1  11
TORSDOF 5
ENDMDL
MODEL 9
REMARK VINA RESULT:    -5.817      3.977      8.569
REMARK INTER + INTRA:          -8.366
REMARK INTER:                  -7.055
REMARK INTRA:                  -1.311
REMARK UNBOUND:                -0.849
REMARK  5 active torsions:
REMARK  status: ('A' for Active; 'I' for Inactive)
REMARK    1  A    between atoms: N8_1  and  C24_2 
REMARK    2  A    between atoms: N8_1  and  C7_8 
REMARK    3  A    between atoms: C2_13  and  N1_14 
REMARK    4  A    between atoms: N1_14  and  C17_15 
REMARK    5  A    between atoms: C14_16  and  C13_19 
ROOT
ATOM      1  C17 FTA A   1       5.711  12.886   9.183  1.00  0.00     0.142 C 
ATOM      2  C14 FTA A   1       5.476  11.768   9.898  1.00  0.00     0.158 C 
ATOM      3  C18 FTA A   1       4.172  11.142   9.863  1.00  0.00     0.069 C 
ATOM      4  N21 FTA A   1       3.059  10.780   9.783  1.00  0.00    -0.197 NA
ENDROOT
BRANCH   2   5
ATOM      5  C13 FTA A   1       6.567  11.179  10.707  1.00  0.00     0.197 A 
ATOM      6  N15 FTA A   1       7.250  11.805  11.748  1.00  0.00    -0.093 NA
ATOM      7  N19 FTA A   1       8.221  10.922  12.202  1.00  0.00    -0.231 N 
ATOM      8  N20 FTA A   1       8.156   9.753  11.459  1.00  0.00    -0.017 NA
ATOM      9  H15 FTA A   1       8.884  11.106  12.969  1.00  0.00     0.200 HD
ATOM     10  N16 FTA A   1       7.124   9.906  10.538  1.00  0.00    -0.090 NA
ENDBRANCH   2   5
BRANCH   1  11
ATOM     11  N1  FTA A   1       6.222  13.964   9.808  1.00  0.00    -0.389 N 
ATOM     12  H11 FTA A   1       7.217  14.179   9.649  1.00  0.00     0.159 HD
BRANCH  11  13
ATOM     13  C2  FTA A   1       5.494  14.828  10.670  1.00  0.00     0.028 A 
ATOM     14  C4  FTA A   1       5.946  15.156  11.946  1.00  0.00     0.031 A 
ATOM     15  C6  FTA A   1       5.079  15.818  12.825  1.00  0.00     0.031 A 
ATOM     16  C7  FTA A   1       3.777  16.159  12.465  1.00  0.00     0.032 A 
ATOM     17  C5  FTA A   1       3.352  15.849  11.185  1.00  0.00     0.031 A 
ATOM     18  C3  FTA A   1       4.191  15.180  10.304  1.00  0.00     0.031 A 
BRANCH  16  19
ATOM     19  N8  FTA A   1       2.821  16.637  13.397  1.00  0.00    -0.356 N 
ATOM     20  H1  FTA A   1       3.035  17.520  13.883  1.00  0.00     0.166 HD
BRANCH  19  21
ATOM     21  C24 FTA A   1       1.586  15.995  13.717  1.00  0.00     0.032 A 
ATOM     22  C26 FTA A   1       1.544  14.860  14.492  1.00  0.00     0.029 A 
ATOM     23  C28 FTA A   1       0.342  14.191  14.622  1.00  0.00     0.002 A 
ATOM     24  C30 FTA A   1      -0.825  14.639  14.026  1.00  0.00     0.000 A 
ATOM     25  C29 FTA A   1      -0.804  15.790  13.283  1.00  0.00     0.002 A 
ATOM     26  C27 FTA A   1       0.413  16.467  13.147  1.00  0.00     0.029 A 
ENDBRANCH  19  21
ENDBRANCH  16  19
ENDBRANCH  11  13
ENDBRANCH   1  11
TORSDOF 5
ENDMDL
