MODEL 1
REMARK VINA RESULT:    -7.947      0.000      0.000
REMARK INTER + INTRA:         -12.315
REMARK INTER:                 -11.388
REMARK INTRA:                  -0.927
REMARK UNBOUND:                -1.812
REMARK  6 active torsions:
REMARK  status: ('A' for Active; 'I' for Inactive)
REMARK    1  A    between atoms: C_7  and  C_8 
REMARK    2  A    between atoms: C_8  and  C_9 
REMARK    3  A    between atoms: C_16  and  C_20 
REMARK    4  A    between atoms: C_17  and  O_19 
REMARK       I    between atoms: C_20  and  N_22 
REMARK    5  A    between atoms: N_22  and  C_24 
REMARK    6  A    between atoms: C_27  and  C_28 
ROOT
HETATM    1  C   UNL     1       2.490   7.742  24.282  0.00  0.00     0.071 A 
HETATM    2  N   UNL     1       2.461   6.482  23.817  0.00  0.00    -0.178 NA
HETATM    3  N   UNL     1       1.437   5.916  24.472  0.00  0.00    -0.277 N 
HETATM    4  H   UNL     1       1.225   4.943  24.282  0.00  0.00     0.189 HD
HETATM    5  C   UNL     1       1.455   7.973  25.235  0.00  0.00     0.020 A 
HETATM    6  C   UNL     1       0.847   6.733  25.397  0.00  0.00     0.065 A 
HETATM    7  C   UNL     1       1.018   9.059  26.017  0.00  0.00     0.035 C 
HETATM    8  C   UNL     1       0.014   8.845  26.980  0.00  0.00     0.066 C 
HETATM    9  C   UNL     1      -0.464   7.546  27.204  0.00  0.00     0.083 C 
HETATM   10  C   UNL     1      -0.116   6.478  26.375  0.00  0.00     0.069 C 
ENDROOT
BRANCH   8  11
HETATM   11  C   UNL     1      -0.508   9.974  27.801  0.00  0.00     0.260 C 
HETATM   12  O   UNL     1      -0.598   9.750  29.014  0.00  0.00    -0.267 OA
HETATM   13  N   UNL     1      -0.808  11.224  27.217  0.00  0.00    -0.318 N 
HETATM   14  C   UNL     1      -0.996  12.361  28.116  0.00  0.00     0.159 C 
BRANCH  13  15
HETATM   15  C   UNL     1      -1.071  11.439  25.825  0.00  0.00     0.037 A 
HETATM   16  C   UNL     1      -0.240  12.259  25.056  0.00  0.00     0.030 A 
HETATM   17  C   UNL     1      -0.565  12.574  23.735  0.00  0.00     0.017 A 
HETATM   18  C   UNL     1      -1.720  12.064  23.135  0.00  0.00     0.009 A 
HETATM   19  C   UNL     1      -2.507  11.169  23.861  0.00  0.00     0.017 A 
HETATM   20  C   UNL     1      -2.176  10.846  25.196  0.00  0.00     0.030 A 
BRANCH  18  21
HETATM   21  C   UNL     1      -2.036  12.538  21.746  0.00  0.00     0.155 C 
HETATM   22  O   UNL     1      -3.211  12.527  21.367  0.00  0.00    -0.293 OA
HETATM   23  C   UNL     1      -0.960  12.976  20.795  0.00  0.00     0.096 C 
ENDBRANCH  18  21
ENDBRANCH  13  15
ENDBRANCH   8  11
BRANCH   9  24
HETATM   24  O   UNL     1      -1.270   7.231  28.269  0.00  0.00    -0.360 OA
HETATM   25  H   UNL     1      -1.517   8.080  28.699  0.00  0.00     0.217 HD
ENDBRANCH   9  24
BRANCH   1  26
HETATM   26  C   UNL     1       3.620   8.655  23.932  0.00  0.00     0.100 C 
BRANCH  26  27
HETATM   27  C   UNL     1       4.464   8.130  22.792  0.00  0.00    -0.052 A 
HETATM   28  C   UNL     1       4.324   8.495  21.445  0.00  0.00     0.014 A 
HETATM   29  C   UNL     1       5.028   7.822  20.436  0.00  0.00    -0.061 A 
HETATM   30  C   UNL     1       4.712   8.086  18.993  0.00  0.00     0.048 C 
HETATM   31  C   UNL     1       5.939   6.818  20.782  0.00  0.00     0.007 A 
HETATM   32  C   UNL     1       6.142   6.487  22.118  0.00  0.00     0.001 A 
HETATM   33  C   UNL     1       5.406   7.133  23.110  0.00  0.00     0.007 A 
ENDBRANCH  26  27
ENDBRANCH   1  26
TORSDOF 6
ENDMDL
MODEL 2
REMARK VINA RESULT:    -7.886      6.556      9.831
REMARK INTER + INTRA:         -12.234
REMARK INTER:                  -9.802
REMARK INTRA:                  -2.432
REMARK UNBOUND:                -1.812
REMARK  6 active torsions:
REMARK  status: ('A' for Active; 'I' for Inactive)
REMARK    1  A    between atoms: C_7  and  C_8 
REMARK    2  A    between atoms: C_8  and  C_9 
REMARK    3  A    between atoms: C_16  and  C_20 
REMARK    4  A    between atoms: C_17  and  O_19 
REMARK       I    between atoms: C_20  and  N_22 
REMARK    5  A    between atoms: N_22  and  C_24 
REMARK    6  A    between atoms: C_27  and  C_28 
ROOT
HETATM    1  C   UNL     1       1.408   5.036  16.277  0.00  0.00     0.071 A 
HETATM    2  N   UNL     1       0.266   5.575  15.818  0.00  0.00    -0.178 NA
HETATM    3  N   UNL     1       0.329   6.856  16.209  0.00  0.00    -0.277 N 
HETATM    4  H   UNL     1      -0.444   7.468  15.973  0.00  0.00     0.189 HD
HETATM    5  C   UNL     1       2.207   6.002  16.956  0.00  0.00     0.020 A 
HETATM    6  C   UNL     1       1.428   7.154  16.967  0.00  0.00     0.065 A 
HETATM    7  C   UNL     1       3.452   6.010  17.612  0.00  0.00     0.035 C 
HETATM    8  C   UNL     1       3.849   7.167  18.308  0.00  0.00     0.066 C 
HETATM    9  C   UNL     1       2.963   8.250  18.411  0.00  0.00     0.083 C 
HETATM   10  C   UNL     1       1.771   8.300  17.688  0.00  0.00     0.069 C 
ENDROOT
BRANCH   8  11
HETATM   11  C   UNL     1       5.176   7.234  18.982  0.00  0.00     0.260 C 
HETATM   12  O   UNL     1       6.001   7.991  18.456  0.00  0.00    -0.267 OA
HETATM   13  N   UNL     1       5.426   6.523  20.176  0.00  0.00    -0.318 N 
HETATM   14  C   UNL     1       6.615   6.889  20.944  0.00  0.00     0.159 C 
BRANCH  13  15
HETATM   15  C   UNL     1       4.681   5.385  20.626  0.00  0.00     0.037 A 
HETATM   16  C   UNL     1       3.602   5.535  21.502  0.00  0.00     0.030 A 
HETATM   17  C   UNL     1       2.955   4.422  22.044  0.00  0.00     0.017 A 
HETATM   18  C   UNL     1       3.355   3.124  21.712  0.00  0.00     0.009 A 
HETATM   19  C   UNL     1       4.367   2.961  20.766  0.00  0.00     0.017 A 
HETATM   20  C   UNL     1       5.018   4.087  20.214  0.00  0.00     0.030 A 
BRANCH  18  21
HETATM   21  C   UNL     1       2.666   1.994  22.420  0.00  0.00     0.155 C 
HETATM   22  O   UNL     1       2.300   2.158  23.587  0.00  0.00    -0.293 OA
HETATM   23  C   UNL     1       2.454   0.661  21.764  0.00  0.00     0.096 C 
ENDBRANCH  18  21
ENDBRANCH  13  15
ENDBRANCH   8  11
BRANCH   9  24
HETATM   24  O   UNL     1       3.191   9.309  19.253  0.00  0.00    -0.360 OA
HETATM   25  H   UNL     1       4.019   9.110  19.743  0.00  0.00     0.217 HD
ENDBRANCH   9  24
BRANCH   1  26
HETATM   26  C   UNL     1       1.634   3.561  16.207  0.00  0.00     0.100 C 
BRANCH  26  27
HETATM   27  C   UNL     1       0.899   2.805  17.293  0.00  0.00    -0.052 A 
HETATM   28  C   UNL     1       0.032   1.723  17.082  0.00  0.00     0.014 A 
HETATM   29  C   UNL     1      -0.744   1.203  18.128  0.00  0.00    -0.061 A 
HETATM   30  C   UNL     1      -1.811   0.188  17.841  0.00  0.00     0.048 C 
HETATM   31  C   UNL     1      -0.600   1.723  19.419  0.00  0.00     0.007 A 
HETATM   32  C   UNL     1       0.305   2.751  19.662  0.00  0.00     0.001 A 
HETATM   33  C   UNL     1       1.040   3.290  18.607  0.00  0.00     0.007 A 
ENDBRANCH  26  27
ENDBRANCH   1  26
TORSDOF 6
ENDMDL
MODEL 3
REMARK VINA RESULT:    -7.840      5.086      7.644
REMARK INTER + INTRA:         -12.173
REMARK INTER:                  -9.523
REMARK INTRA:                  -2.651
REMARK UNBOUND:                -1.812
REMARK  6 active torsions:
REMARK  status: ('A' for Active; 'I' for Inactive)
REMARK    1  A    between atoms: C_7  and  C_8 
REMARK    2  A    between atoms: C_8  and  C_9 
REMARK    3  A    between atoms: C_16  and  C_20 
REMARK    4  A    between atoms: C_17  and  O_19 
REMARK       I    between atoms: C_20  and  N_22 
REMARK    5  A    between atoms: N_22  and  C_24 
REMARK    6  A    between atoms: C_27  and  C_28 
ROOT
HETATM    1  C   UNL     1       4.514   8.392  21.846  0.00  0.00     0.071 A 
HETATM    2  N   UNL     1       3.898   9.361  22.544  0.00  0.00    -0.178 NA
HETATM    3  N   UNL     1       3.259   8.703  23.523  0.00  0.00    -0.277 N 
HETATM    4  H   UNL     1       2.711   9.242  24.184  0.00  0.00     0.189 HD
HETATM    5  C   UNL     1       4.268   7.105  22.408  0.00  0.00     0.020 A 
HETATM    6  C   UNL     1       3.374   7.342  23.446  0.00  0.00     0.065 A 
HETATM    7  C   UNL     1       4.642   5.781  22.114  0.00  0.00     0.035 C 
HETATM    8  C   UNL     1       4.057   4.729  22.844  0.00  0.00     0.066 C 
HETATM    9  C   UNL     1       3.053   5.012  23.782  0.00  0.00     0.083 C 
HETATM   10  C   UNL     1       2.740   6.320  24.156  0.00  0.00     0.069 C 
ENDROOT
BRANCH   8  11
HETATM   11  C   UNL     1       4.454   3.314  22.595  0.00  0.00     0.260 C 
HETATM   12  O   UNL     1       5.378   2.890  23.299  0.00  0.00    -0.267 OA
HETATM   13  N   UNL     1       3.762   2.515  21.659  0.00  0.00    -0.318 N 
HETATM   14  C   UNL     1       3.988   1.072  21.705  0.00  0.00     0.159 C 
BRANCH  13  15
HETATM   15  C   UNL     1       2.957   3.018  20.585  0.00  0.00     0.037 A 
HETATM   16  C   UNL     1       1.785   3.736  20.841  0.00  0.00     0.030 A 
HETATM   17  C   UNL     1       0.933   4.115  19.802  0.00  0.00     0.017 A 
HETATM   18  C   UNL     1       1.235   3.806  18.472  0.00  0.00     0.009 A 
HETATM   19  C   UNL     1       2.448   3.175  18.195  0.00  0.00     0.017 A 
HETATM   20  C   UNL     1       3.313   2.795  19.246  0.00  0.00     0.030 A 
BRANCH  18  21
HETATM   21  C   UNL     1       0.212   4.168  17.436  0.00  0.00     0.155 C 
HETATM   22  O   UNL     1      -0.950   4.378  17.796  0.00  0.00    -0.293 OA
HETATM   23  C   UNL     1       0.552   4.233  15.975  0.00  0.00     0.096 C 
ENDBRANCH  18  21
ENDBRANCH  13  15
ENDBRANCH   8  11
BRANCH   9  24
HETATM   24  O   UNL     1       2.289   4.031  24.361  0.00  0.00    -0.360 OA
HETATM   25  H   UNL     1       2.899   3.471  24.890  0.00  0.00     0.217 HD
ENDBRANCH   9  24
BRANCH   1  26
HETATM   26  C   UNL     1       5.187   8.701  20.549  0.00  0.00     0.100 C 
BRANCH  26  27
HETATM   27  C   UNL     1       4.536   8.007  19.372  0.00  0.00    -0.052 A 
HETATM   28  C   UNL     1       3.269   8.307  18.855  0.00  0.00     0.014 A 
HETATM   29  C   UNL     1       2.673   7.492  17.881  0.00  0.00    -0.061 A 
HETATM   30  C   UNL     1       1.240   7.710  17.491  0.00  0.00     0.048 C 
HETATM   31  C   UNL     1       3.382   6.403  17.365  0.00  0.00     0.007 A 
HETATM   32  C   UNL     1       4.669   6.127  17.818  0.00  0.00     0.001 A 
HETATM   33  C   UNL     1       5.235   6.918  18.816  0.00  0.00     0.007 A 
ENDBRANCH  26  27
ENDBRANCH   1  26
TORSDOF 6
ENDMDL
MODEL 4
REMARK VINA RESULT:    -7.808      3.839      6.716
REMARK INTER + INTRA:         -12.131
REMARK INTER:                 -10.568
REMARK INTRA:                  -1.563
REMARK UNBOUND:                -1.812
REMARK  6 active torsions:
REMARK  status: ('A' for Active; 'I' for Inactive)
REMARK    1  A    between atoms: C_7  and  C_8 
REMARK    2  A    between atoms: C_8  and  C_9 
REMARK    3  A    between atoms: C_16  and  C_20 
REMARK    4  A    between atoms: C_17  and  O_19 
REMARK       I    between atoms: C_20  and  N_22 
REMARK    5  A    between atoms: N_22  and  C_24 
REMARK    6  A    between atoms: C_27  and  C_28 
ROOT
HETATM    1  C   UNL     1       4.122   7.795  19.176  0.00  0.00     0.071 A 
HETATM    2  N   UNL     1       5.235   8.325  18.640  0.00  0.00    -0.178 NA
HETATM    3  N   UNL     1       6.228   7.835  19.397  0.00  0.00    -0.277 N 
HETATM    4  H   UNL     1       7.179   8.109  19.176  0.00  0.00     0.189 HD
HETATM    5  C   UNL     1       4.426   6.946  20.280  0.00  0.00     0.020 A 
HETATM    6  C   UNL     1       5.802   7.070  20.448  0.00  0.00     0.065 A 
HETATM    7  C   UNL     1       3.694   6.155  21.185  0.00  0.00     0.035 C 
HETATM    8  C   UNL     1       4.366   5.556  22.267  0.00  0.00     0.066 C 
HETATM    9  C   UNL     1       5.727   5.830  22.473  0.00  0.00     0.083 C 
HETATM   10  C   UNL     1       6.490   6.529  21.535  0.00  0.00     0.069 C 
ENDROOT
BRANCH   8  11
HETATM   11  C   UNL     1       3.638   4.678  23.225  0.00  0.00     0.260 C 
HETATM   12  O   UNL     1       3.646   3.472  22.951  0.00  0.00    -0.267 OA
HETATM   13  N   UNL     1       3.046   5.204  24.394  0.00  0.00    -0.318 N 
HETATM   14  C   UNL     1       2.644   4.258  25.432  0.00  0.00     0.159 C 
BRANCH  13  15
HETATM   15  C   UNL     1       2.689   6.579  24.586  0.00  0.00     0.037 A 
HETATM   16  C   UNL     1       1.357   6.953  24.789  0.00  0.00     0.030 A 
HETATM   17  C   UNL     1       0.989   8.299  24.848  0.00  0.00     0.017 A 
HETATM   18  C   UNL     1       1.944   9.313  24.725  0.00  0.00     0.009 A 
HETATM   19  C   UNL     1       3.287   8.952  24.619  0.00  0.00     0.017 A 
HETATM   20  C   UNL     1       3.660   7.591  24.564  0.00  0.00     0.030 A 
BRANCH  18  21
HETATM   21  C   UNL     1       1.441  10.726  24.702  0.00  0.00     0.155 C 
HETATM   22  O   UNL     1       0.268  10.946  25.021  0.00  0.00    -0.293 OA
HETATM   23  C   UNL     1       2.308  11.868  24.258  0.00  0.00     0.096 C 
ENDBRANCH  18  21
ENDBRANCH  13  15
ENDBRANCH   8  11
BRANCH   9  24
HETATM   24  O   UNL     1       6.385   5.466  23.620  0.00  0.00    -0.360 OA
HETATM   25  H   UNL     1       6.769   4.576  23.457  0.00  0.00     0.217 HD
ENDBRANCH   9  24
BRANCH   1  26
HETATM   26  C   UNL     1       2.772   8.250  18.727  0.00  0.00     0.100 C 
BRANCH  26  27
HETATM   27  C   UNL     1       1.998   7.164  18.011  0.00  0.00    -0.052 A 
HETATM   28  C   UNL     1       0.944   6.422  18.563  0.00  0.00     0.014 A 
HETATM   29  C   UNL     1       0.408   5.315  17.889  0.00  0.00    -0.061 A 
HETATM   30  C   UNL     1      -0.573   4.415  18.582  0.00  0.00     0.048 C 
HETATM   31  C   UNL     1       0.881   4.987  16.614  0.00  0.00     0.007 A 
HETATM   32  C   UNL     1       1.881   5.752  16.021  0.00  0.00     0.001 A 
HETATM   33  C   UNL     1       2.437   6.825  16.717  0.00  0.00     0.007 A 
ENDBRANCH  26  27
ENDBRANCH   1  26
TORSDOF 6
ENDMDL
MODEL 5
REMARK VINA RESULT:    -7.775      5.612      9.562
REMARK INTER + INTRA:         -12.087
REMARK INTER:                  -9.798
REMARK INTRA:                  -2.289
REMARK UNBOUND:                -1.812
REMARK  6 active torsions:
REMARK  status: ('A' for Active; 'I' for Inactive)
REMARK    1  A    between atoms: C_7  and  C_8 
REMARK    2  A    between atoms: C_8  and  C_9 
REMARK    3  A    between atoms: C_16  and  C_20 
REMARK    4  A    between atoms: C_17  and  O_19 
REMARK       I    between atoms: C_20  and  N_22 
REMARK    5  A    between atoms: N_22  and  C_24 
REMARK    6  A    between atoms: C_27  and  C_28 
ROOT
HETATM    1  C   UNL     1       3.181   7.907  18.307  0.00  0.00     0.071 A 
HETATM    2  N   UNL     1       2.441   9.024  18.212  0.00  0.00    -0.178 NA
HETATM    3  N   UNL     1       1.297   8.612  17.645  0.00  0.00    -0.277 N 
HETATM    4  H   UNL     1       0.575   9.301  17.467  0.00  0.00     0.189 HD
HETATM    5  C   UNL     1       2.481   6.771  17.804  0.00  0.00     0.020 A 
HETATM    6  C   UNL     1       1.292   7.288  17.300  0.00  0.00     0.065 A 
HETATM    7  C   UNL     1       2.747   5.397  17.659  0.00  0.00     0.035 C 
HETATM    8  C   UNL     1       1.827   4.594  16.959  0.00  0.00     0.066 C 
HETATM    9  C   UNL     1       0.715   5.191  16.345  0.00  0.00     0.083 C 
HETATM   10  C   UNL     1       0.383   6.530  16.560  0.00  0.00     0.069 C 
ENDROOT
BRANCH   8  11
HETATM   11  C   UNL     1       2.048   3.128  16.816  0.00  0.00     0.260 C 
HETATM   12  O   UNL     1       1.609   2.623  15.776  0.00  0.00    -0.267 OA
HETATM   13  N   UNL     1       2.770   2.400  17.787  0.00  0.00    -0.318 N 
HETATM   14  C   UNL     1       3.223   1.058  17.426  0.00  0.00     0.159 C 
BRANCH  13  15
HETATM   15  C   UNL     1       2.980   2.820  19.141  0.00  0.00     0.037 A 
HETATM   16  C   UNL     1       4.247   3.209  19.583  0.00  0.00     0.030 A 
HETATM   17  C   UNL     1       4.483   3.495  20.930  0.00  0.00     0.017 A 
HETATM   18  C   UNL     1       3.454   3.419  21.873  0.00  0.00     0.009 A 
HETATM   19  C   UNL     1       2.164   3.125  21.429  0.00  0.00     0.017 A 
HETATM   20  C   UNL     1       1.925   2.841  20.066  0.00  0.00     0.030 A 
BRANCH  18  21
HETATM   21  C   UNL     1       3.824   3.647  23.310  0.00  0.00     0.155 C 
HETATM   22  O   UNL     1       3.001   4.181  24.059  0.00  0.00    -0.293 OA
HETATM   23  C   UNL     1       5.180   3.288  23.844  0.00  0.00     0.096 C 
ENDBRANCH  18  21
ENDBRANCH  13  15
ENDBRANCH   8  11
BRANCH   9  24
HETATM   24  O   UNL     1      -0.092   4.514  15.468  0.00  0.00    -0.360 OA
HETATM   25  H   UNL     1      -0.197   5.087  14.676  0.00  0.00     0.217 HD
ENDBRANCH   9  24
BRANCH   1  26
HETATM   26  C   UNL     1       4.615   7.978  18.721  0.00  0.00     0.100 C 
BRANCH  26  27
HETATM   27  C   UNL     1       4.842   7.474  20.129  0.00  0.00    -0.052 A 
HETATM   28  C   UNL     1       3.936   7.602  21.192  0.00  0.00     0.014 A 
HETATM   29  C   UNL     1       4.307   7.268  22.503  0.00  0.00    -0.061 A 
HETATM   30  C   UNL     1       3.399   7.602  23.650  0.00  0.00     0.048 C 
HETATM   31  C   UNL     1       5.576   6.732  22.746  0.00  0.00     0.007 A 
HETATM   32  C   UNL     1       6.466   6.535  21.695  0.00  0.00     0.001 A 
HETATM   33  C   UNL     1       6.104   6.910  20.402  0.00  0.00     0.007 A 
ENDBRANCH  26  27
ENDBRANCH   1  26
TORSDOF 6
ENDMDL
MODEL 6
REMARK VINA RESULT:    -7.760      4.684      8.628
REMARK INTER + INTRA:         -12.068
REMARK INTER:                 -10.467
REMARK INTRA:                  -1.601
REMARK UNBOUND:                -1.812
REMARK  6 active torsions:
REMARK  status: ('A' for Active; 'I' for Inactive)
REMARK    1  A    between atoms: C_7  and  C_8 
REMARK    2  A    between atoms: C_8  and  C_9 
REMARK    3  A    between atoms: C_16  and  C_20 
REMARK    4  A    between atoms: C_17  and  O_19 
REMARK       I    between atoms: C_20  and  N_22 
REMARK    5  A    between atoms: N_22  and  C_24 
REMARK    6  A    between atoms: C_27  and  C_28 
ROOT
HETATM    1  C   UNL     1       4.448   7.019  23.083  0.00  0.00     0.071 A 
HETATM    2  N   UNL     1       5.640   6.561  23.501  0.00  0.00    -0.178 NA
HETATM    3  N   UNL     1       6.342   6.396  22.369  0.00  0.00    -0.277 N 
HETATM    4  H   UNL     1       7.290   6.046  22.440  0.00  0.00     0.189 HD
HETATM    5  C   UNL     1       4.408   7.159  21.665  0.00  0.00     0.020 A 
HETATM    6  C   UNL     1       5.631   6.658  21.230  0.00  0.00     0.065 A 
HETATM    7  C   UNL     1       3.462   7.580  20.712  0.00  0.00     0.035 C 
HETATM    8  C   UNL     1       3.759   7.432  19.345  0.00  0.00     0.066 C 
HETATM    9  C   UNL     1       4.944   6.788  18.960  0.00  0.00     0.083 C 
HETATM   10  C   UNL     1       5.936   6.454  19.883  0.00  0.00     0.069 C 
ENDROOT
BRANCH   8  11
HETATM   11  C   UNL     1       2.804   7.903  18.302  0.00  0.00     0.260 C 
HETATM   12  O   UNL     1       2.851   9.112  18.047  0.00  0.00    -0.267 OA
HETATM   13  N   UNL     1       1.961   6.998  17.621  0.00  0.00    -0.318 N 
HETATM   14  C   UNL     1       1.303   7.472  16.406  0.00  0.00     0.159 C 
BRANCH  13  15
HETATM   15  C   UNL     1       1.598   5.696  18.097  0.00  0.00     0.037 A 
HETATM   16  C   UNL     1       0.623   5.539  19.086  0.00  0.00     0.030 A 
HETATM   17  C   UNL     1       0.358   4.287  19.643  0.00  0.00     0.017 A 
HETATM   18  C   UNL     1       1.048   3.148  19.216  0.00  0.00     0.009 A 
HETATM   19  C   UNL     1       1.955   3.275  18.164  0.00  0.00     0.017 A 
HETATM   20  C   UNL     1       2.219   4.541  17.596  0.00  0.00     0.030 A 
BRANCH  18  21
HETATM   21  C   UNL     1       0.766   1.865  19.942  0.00  0.00     0.155 C 
HETATM   22  O   UNL     1       1.456   1.573  20.923  0.00  0.00    -0.293 OA
HETATM   23  C   UNL     1      -0.297   0.911  19.480  0.00  0.00     0.096 C 
ENDBRANCH  18  21
ENDBRANCH  13  15
ENDBRANCH   8  11
BRANCH   9  24
HETATM   24  O   UNL     1       5.190   6.412  17.664  0.00  0.00    -0.360 OA
HETATM   25  H   UNL     1       5.222   5.430  17.654  0.00  0.00     0.217 HD
ENDBRANCH   9  24
BRANCH   1  26
HETATM   26  C   UNL     1       3.308   7.152  24.040  0.00  0.00     0.100 C 
BRANCH  26  27
HETATM   27  C   UNL     1       2.913   8.592  24.282  0.00  0.00    -0.052 A 
HETATM   28  C   UNL     1       1.690   9.017  24.820  0.00  0.00     0.014 A 
HETATM   29  C   UNL     1       1.340  10.375  24.839  0.00  0.00    -0.061 A 
HETATM   30  C   UNL     1      -0.049  10.789  25.228  0.00  0.00     0.048 C 
HETATM   31  C   UNL     1       2.254  11.330  24.379  0.00  0.00     0.007 A 
HETATM   32  C   UNL     1       3.499  10.933  23.902  0.00  0.00     0.001 A 
HETATM   33  C   UNL     1       3.821   9.578  23.848  0.00  0.00     0.007 A 
ENDBRANCH  26  27
ENDBRANCH   1  26
TORSDOF 6
ENDMDL
MODEL 7
REMARK VINA RESULT:    -7.745      6.517      9.639
REMARK INTER + INTRA:         -12.047
REMARK INTER:                  -9.213
REMARK INTRA:                  -2.834
REMARK UNBOUND:                -1.812
REMARK  6 active torsions:
REMARK  status: ('A' for Active; 'I' for Inactive)
REMARK    1  A    between atoms: C_7  and  C_8 
REMARK    2  A    between atoms: C_8  and  C_9 
REMARK    3  A    between atoms: C_16  and  C_20 
REMARK    4  A    between atoms: C_17  and  O_19 
REMARK       I    between atoms: C_20  and  N_22 
REMARK    5  A    between atoms: N_22  and  C_24 
REMARK    6  A    between atoms: C_27  and  C_28 
ROOT
HETATM    1  C   UNL     1       1.473   5.102  16.306  0.00  0.00     0.071 A 
HETATM    2  N   UNL     1       0.262   5.585  15.982  0.00  0.00    -0.178 NA
HETATM    3  N   UNL     1       0.259   6.826  16.492  0.00  0.00    -0.277 N 
HETATM    4  H   UNL     1      -0.574   7.391  16.371  0.00  0.00     0.189 HD
HETATM    5  C   UNL     1       2.248   6.064  17.018  0.00  0.00     0.020 A 
HETATM    6  C   UNL     1       1.388   7.142  17.196  0.00  0.00     0.065 A 
HETATM    7  C   UNL     1       3.536   6.114  17.583  0.00  0.00     0.035 C 
HETATM    8  C   UNL     1       3.898   7.231  18.359  0.00  0.00     0.066 C 
HETATM    9  C   UNL     1       2.944   8.224  18.629  0.00  0.00     0.083 C 
HETATM   10  C   UNL     1       1.698   8.241  17.999  0.00  0.00     0.069 C 
ENDROOT
BRANCH   8  11
HETATM   11  C   UNL     1       5.265   7.345  18.941  0.00  0.00     0.260 C 
HETATM   12  O   UNL     1       6.034   8.107  18.345  0.00  0.00    -0.267 OA
HETATM   13  N   UNL     1       5.611   6.668  20.131  0.00  0.00    -0.318 N 
HETATM   14  C   UNL     1       6.838   7.079  20.810  0.00  0.00     0.159 C 
BRANCH  13  15
HETATM   15  C   UNL     1       4.925   5.524  20.655  0.00  0.00     0.037 A 
HETATM   16  C   UNL     1       3.942   5.665  21.639  0.00  0.00     0.030 A 
HETATM   17  C   UNL     1       3.364   4.546  22.243  0.00  0.00     0.017 A 
HETATM   18  C   UNL     1       3.736   3.252  21.869  0.00  0.00     0.009 A 
HETATM   19  C   UNL     1       4.646   3.097  20.822  0.00  0.00     0.017 A 
HETATM   20  C   UNL     1       5.227   4.229  20.207  0.00  0.00     0.030 A 
BRANCH  18  21
HETATM   21  C   UNL     1       3.133   2.116  22.643  0.00  0.00     0.155 C 
HETATM   22  O   UNL     1       2.069   2.302  23.239  0.00  0.00    -0.293 OA
HETATM   23  C   UNL     1       3.812   0.781  22.749  0.00  0.00     0.096 C 
ENDBRANCH  18  21
ENDBRANCH  13  15
ENDBRANCH   8  11
BRANCH   9  24
HETATM   24  O   UNL     1       3.156   9.216  19.552  0.00  0.00    -0.360 OA
HETATM   25  H   UNL     1       3.646   8.808  20.300  0.00  0.00     0.217 HD
ENDBRANCH   9  24
BRANCH   1  26
HETATM   26  C   UNL     1       1.803   3.663  16.077  0.00  0.00     0.100 C 
BRANCH  26  27
HETATM   27  C   UNL     1       1.828   2.858  17.358  0.00  0.00    -0.052 A 
HETATM   28  C   UNL     1       2.854   1.986  17.746  0.00  0.00     0.014 A 
HETATM   29  C   UNL     1       2.707   1.146  18.860  0.00  0.00    -0.061 A 
HETATM   30  C   UNL     1       3.725   0.079  19.138  0.00  0.00     0.048 C 
HETATM   31  C   UNL     1       1.548   1.228  19.639  0.00  0.00     0.007 A 
HETATM   32  C   UNL     1       0.546   2.135  19.308  0.00  0.00     0.001 A 
HETATM   33  C   UNL     1       0.683   2.936  18.175  0.00  0.00     0.007 A 
ENDBRANCH  26  27
ENDBRANCH   1  26
TORSDOF 6
ENDMDL
MODEL 8
REMARK VINA RESULT:    -7.690      3.831      8.158
REMARK INTER + INTRA:         -11.975
REMARK INTER:                 -10.163
REMARK INTRA:                  -1.812
REMARK UNBOUND:                -1.812
REMARK  6 active torsions:
REMARK  status: ('A' for Active; 'I' for Inactive)
REMARK    1  A    between atoms: C_7  and  C_8 
REMARK    2  A    between atoms: C_8  and  C_9 
REMARK    3  A    between atoms: C_16  and  C_20 
REMARK    4  A    between atoms: C_17  and  O_19 
REMARK       I    between atoms: C_20  and  N_22 
REMARK    5  A    between atoms: N_22  and  C_24 
REMARK    6  A    between atoms: C_27  and  C_28 
ROOT
HETATM    1  C   UNL     1       1.535   8.841  24.648  0.00  0.00     0.071 A 
HETATM    2  N   UNL     1       2.177  10.020  24.605  0.00  0.00    -0.178 NA
HETATM    3  N   UNL     1       3.463   9.686  24.423  0.00  0.00    -0.277 N 
HETATM    4  H   UNL     1       4.148  10.431  24.364  0.00  0.00     0.189 HD
HETATM    5  C   UNL     1       2.434   7.748  24.473  0.00  0.00     0.020 A 
HETATM    6  C   UNL     1       3.693   8.337  24.419  0.00  0.00     0.065 A 
HETATM    7  C   UNL     1       2.332   6.346  24.426  0.00  0.00     0.035 C 
HETATM    8  C   UNL     1       3.509   5.576  24.381  0.00  0.00     0.066 C 
HETATM    9  C   UNL     1       4.756   6.213  24.475  0.00  0.00     0.083 C 
HETATM   10  C   UNL     1       4.880   7.603  24.423  0.00  0.00     0.069 C 
ENDROOT
BRANCH   8  11
HETATM   11  C   UNL     1       3.447   4.090  24.289  0.00  0.00     0.260 C 
HETATM   12  O   UNL     1       3.576   3.486  25.361  0.00  0.00    -0.267 OA
HETATM   13  N   UNL     1       3.190   3.444  23.060  0.00  0.00    -0.318 N 
HETATM   14  C   UNL     1       2.821   2.031  23.104  0.00  0.00     0.159 C 
BRANCH  13  15
HETATM   15  C   UNL     1       3.389   4.030  21.767  0.00  0.00     0.037 A 
HETATM   16  C   UNL     1       4.669   4.124  21.212  0.00  0.00     0.030 A 
HETATM   17  C   UNL     1       4.883   4.808  20.013  0.00  0.00     0.017 A 
HETATM   18  C   UNL     1       3.823   5.402  19.322  0.00  0.00     0.009 A 
HETATM   19  C   UNL     1       2.529   5.233  19.816  0.00  0.00     0.017 A 
HETATM   20  C   UNL     1       2.311   4.537  21.026  0.00  0.00     0.030 A 
BRANCH  18  21
HETATM   21  C   UNL     1       4.165   6.198  18.097  0.00  0.00     0.155 C 
HETATM   22  O   UNL     1       5.281   6.719  18.019  0.00  0.00    -0.293 OA
HETATM   23  C   UNL     1       3.174   6.414  16.991  0.00  0.00     0.096 C 
ENDBRANCH  18  21
ENDBRANCH  13  15
ENDBRANCH   8  11
BRANCH   9  24
HETATM   24  O   UNL     1       5.924   5.520  24.662  0.00  0.00    -0.360 OA
HETATM   25  H   UNL     1       6.255   5.274  23.770  0.00  0.00     0.217 HD
ENDBRANCH   9  24
BRANCH   1  26
HETATM   26  C   UNL     1       0.092   8.774  25.029  0.00  0.00     0.100 C 
BRANCH  26  27
HETATM   27  C   UNL     1      -0.153   9.188  26.464  0.00  0.00    -0.052 A 
HETATM   28  C   UNL     1       0.450   8.609  27.588  0.00  0.00     0.014 A 
HETATM   29  C   UNL     1       0.026   8.934  28.885  0.00  0.00    -0.061 A 
HETATM   30  C   UNL     1       0.539   8.157  30.062  0.00  0.00     0.048 C 
HETATM   31  C   UNL     1      -0.966   9.904  29.064  0.00  0.00     0.007 A 
HETATM   32  C   UNL     1      -1.531  10.539  27.963  0.00  0.00     0.001 A 
HETATM   33  C   UNL     1      -1.132  10.178  26.676  0.00  0.00     0.007 A 
ENDBRANCH  26  27
ENDBRANCH   1  26
TORSDOF 6
ENDMDL
MODEL 9
REMARK VINA RESULT:    -7.686      5.477      7.663
REMARK INTER + INTRA:         -11.970
REMARK INTER:                  -9.734
REMARK INTRA:                  -2.236
REMARK UNBOUND:                -1.812
REMARK  6 active torsions:
REMARK  status: ('A' for Active; 'I' for Inactive)
REMARK    1  A    between atoms: C_7  and  C_8 
REMARK    2  A    between atoms: C_8  and  C_9 
REMARK    3  A    between atoms: C_16  and  C_20 
REMARK    4  A    between atoms: C_17  and  O_19 
REMARK       I    between atoms: C_20  and  N_22 
REMARK    5  A    between atoms: N_22  and  C_24 
REMARK    6  A    between atoms: C_27  and  C_28 
ROOT
HETATM    1  C   UNL     1       1.341   3.176  19.624  0.00  0.00     0.071 A 
HETATM    2  N   UNL     1       1.679   2.122  18.863  0.00  0.00    -0.178 NA
HETATM    3  N   UNL     1       2.674   1.533  19.543  0.00  0.00    -0.277 N 
HETATM    4  H   UNL     1       3.098   0.701  19.148  0.00  0.00     0.189 HD
HETATM    5  C   UNL     1       2.130   3.240  20.810  0.00  0.00     0.020 A 
HETATM    6  C   UNL     1       3.047   2.203  20.676  0.00  0.00     0.065 A 
HETATM    7  C   UNL     1       2.214   4.089  21.929  0.00  0.00     0.035 C 
HETATM    8  C   UNL     1       3.257   3.898  22.854  0.00  0.00     0.066 C 
HETATM    9  C   UNL     1       4.240   2.931  22.597  0.00  0.00     0.083 C 
HETATM   10  C   UNL     1       4.120   2.017  21.549  0.00  0.00     0.069 C 
ENDROOT
BRANCH   8  11
HETATM   11  C   UNL     1       3.360   4.748  24.074  0.00  0.00     0.260 C 
HETATM   12  O   UNL     1       2.653   4.396  25.026  0.00  0.00    -0.267 OA
HETATM   13  N   UNL     1       4.261   5.833  24.135  0.00  0.00    -0.318 N 
HETATM   14  C   UNL     1       4.541   6.405  25.450  0.00  0.00     0.159 C 
BRANCH  13  15
HETATM   15  C   UNL     1       4.819   6.502  22.997  0.00  0.00     0.037 A 
HETATM   16  C   UNL     1       4.101   7.494  22.323  0.00  0.00     0.030 A 
HETATM   17  C   UNL     1       4.587   8.056  21.141  0.00  0.00     0.017 A 
HETATM   18  C   UNL     1       5.815   7.658  20.605  0.00  0.00     0.009 A 
HETATM   19  C   UNL     1       6.585   6.739  21.318  0.00  0.00     0.017 A 
HETATM   20  C   UNL     1       6.097   6.174  22.517  0.00  0.00     0.030 A 
BRANCH  18  21
HETATM   21  C   UNL     1       6.207   8.245  19.281  0.00  0.00     0.155 C 
HETATM   22  O   UNL     1       5.520   7.985  18.288  0.00  0.00    -0.293 OA
HETATM   23  C   UNL     1       7.433   9.097  19.124  0.00  0.00     0.096 C 
ENDBRANCH  18  21
ENDBRANCH  13  15
ENDBRANCH   8  11
BRANCH   9  24
HETATM   24  O   UNL     1       5.396   2.843  23.331  0.00  0.00    -0.360 OA
HETATM   25  H   UNL     1       5.778   3.748  23.370  0.00  0.00     0.217 HD
ENDBRANCH   9  24
BRANCH   1  26
HETATM   26  C   UNL     1       0.384   4.204  19.116  0.00  0.00     0.100 C 
BRANCH  26  27
HETATM   27  C   UNL     1       1.051   5.240  18.236  0.00  0.00    -0.052 A 
HETATM   28  C   UNL     1       1.557   6.471  18.676  0.00  0.00     0.014 A 
HETATM   29  C   UNL     1       1.993   7.442  17.763  0.00  0.00    -0.061 A 
HETATM   30  C   UNL     1       2.337   8.823  18.240  0.00  0.00     0.048 C 
HETATM   31  C   UNL     1       1.990   7.154  16.394  0.00  0.00     0.007 A 
HETATM   32  C   UNL     1       1.554   5.912  15.942  0.00  0.00     0.001 A 
HETATM   33  C   UNL     1       1.083   4.969  16.855  0.00  0.00     0.007 A 
ENDBRANCH  26  27
ENDBRANCH   1  26
TORSDOF 6
ENDMDL
