MODEL 1
REMARK VINA RESULT:    -7.880      0.000      0.000
REMARK INTER + INTRA:         -11.499
REMARK INTER:                 -10.561
REMARK INTRA:                  -0.937
REMARK UNBOUND:                -0.855
REMARK  7 active torsions:
REMARK  status: ('A' for Active; 'I' for Inactive)
REMARK    1  A    between atoms: C_2  and  C_3 
REMARK    2  A    between atoms: C_3  and  O_4 
REMARK    3  A    between atoms: C_3  and  C_5 
REMARK    4  A    between atoms: C_12  and  C_16 
REMARK    5  A    between atoms: C_13  and  O_15 
REMARK       I    between atoms: C_16  and  N_18 
REMARK    6  A    between atoms: N_18  and  C_20 
REMARK    7  A    between atoms: C_23  and  N_26 
ROOT
HETATM    1  C   UNL     1      10.442  14.759  22.139  0.00  0.00     0.095 A 
HETATM    2  N   UNL     1      11.631  15.211  22.585  0.00  0.00    -0.175 NA
HETATM    3  N   UNL     1      11.445  15.337  23.912  0.00  0.00    -0.277 N 
HETATM    4  H   UNL     1      12.212  15.696  24.472  0.00  0.00     0.189 HD
HETATM    5  C   UNL     1       9.522  14.562  23.210  0.00  0.00     0.022 A 
HETATM    6  C   UNL     1      10.197  14.979  24.346  0.00  0.00     0.065 A 
HETATM    7  C   UNL     1       8.195  14.104  23.346  0.00  0.00     0.035 A 
HETATM    8  C   UNL     1       7.547  14.134  24.602  0.00  0.00     0.066 A 
HETATM    9  C   UNL     1       8.245  14.671  25.691  0.00  0.00     0.083 A 
HETATM   10  C   UNL     1       9.599  15.030  25.607  0.00  0.00     0.069 A 
ENDROOT
BRANCH   8  11
HETATM   11  C   UNL     1       6.112  13.711  24.579  0.00  0.00     0.260 C 
HETATM   12  O   UNL     1       5.928  12.555  24.969  0.00  0.00    -0.267 OA
HETATM   13  N   UNL     1       5.057  14.548  24.151  0.00  0.00    -0.318 N 
HETATM   14  C   UNL     1       5.225  15.861  23.527  0.00  0.00     0.159 C 
BRANCH  13  15
HETATM   15  C   UNL     1       3.691  14.094  24.298  0.00  0.00     0.037 A 
HETATM   16  C   UNL     1       2.935  14.409  25.432  0.00  0.00     0.032 A 
HETATM   17  C   UNL     1       1.611  13.959  25.581  0.00  0.00     0.031 A 
HETATM   18  C   UNL     1       0.988  13.166  24.611  0.00  0.00     0.030 A 
HETATM   19  C   UNL     1       1.745  12.887  23.465  0.00  0.00     0.031 A 
HETATM   20  C   UNL     1       3.061  13.349  23.299  0.00  0.00     0.032 A 
BRANCH  18  21
HETATM   21  N   UNL     1      -0.313  12.726  24.724  0.00  0.00    -0.377 N 
HETATM   22  C   UNL     1      -1.307  12.867  23.650  0.00  0.00     0.149 C 
HETATM   23  C   UNL     1      -2.212  11.620  23.661  0.00  0.00     0.187 C 
HETATM   24  O   UNL     1      -2.829  11.408  24.945  0.00  0.00    -0.388 OA
HETATM   25  C   UNL     1      -1.827  11.272  25.969  0.00  0.00     0.187 C 
HETATM   26  C   UNL     1      -0.933  12.519  26.045  0.00  0.00     0.149 C 
ENDBRANCH  18  21
ENDBRANCH  13  15
ENDBRANCH   8  11
BRANCH   9  27
HETATM   27  O   UNL     1       7.657  14.982  26.888  0.00  0.00    -0.360 OA
HETATM   28  H   UNL     1       6.743  14.644  26.854  0.00  0.00     0.217 HD
ENDBRANCH   9  27
BRANCH   1  29
HETATM   29  C   UNL     1      10.242  14.533  20.665  0.00  0.00     0.172 C 
BRANCH  29  30
HETATM   30  C   UNL     1      10.007  13.058  20.312  0.00  0.00     0.034 C 
HETATM   31  C   UNL     1       8.859  12.835  19.334  0.00  0.00     0.008 C 
ENDBRANCH  29  30
BRANCH  29  32
HETATM   32  O   UNL     1       9.177  15.328  20.131  0.00  0.00    -0.389 OA
HETATM   33  H   UNL     1       9.576  15.945  19.496  0.00  0.00     0.210 HD
ENDBRANCH  29  32
ENDBRANCH   1  29
TORSDOF 7
ENDMDL
MODEL 2
REMARK VINA RESULT:    -7.725      2.176      3.713
REMARK INTER + INTRA:         -11.289
REMARK INTER:                 -10.640
REMARK INTRA:                  -0.649
REMARK UNBOUND:                -0.855
REMARK  7 active torsions:
REMARK  status: ('A' for Active; 'I' for Inactive)
REMARK    1  A    between atoms: C_2  and  C_3 
REMARK    2  A    between atoms: C_3  and  O_4 
REMARK    3  A    between atoms: C_3  and  C_5 
REMARK    4  A    between atoms: C_12  and  C_16 
REMARK    5  A    between atoms: C_13  and  O_15 
REMARK       I    between atoms: C_16  and  N_18 
REMARK    6  A    between atoms: N_18  and  C_20 
REMARK    7  A    between atoms: C_23  and  N_26 
ROOT
HETATM    1  C   UNL     1      12.461  13.707  25.100  0.00  0.00     0.095 A 
HETATM    2  N   UNL     1      13.604  14.250  24.636  0.00  0.00    -0.175 NA
HETATM    3  N   UNL     1      13.182  15.167  23.746  0.00  0.00    -0.277 N 
HETATM    4  H   UNL     1      13.880  15.698  23.237  0.00  0.00     0.189 HD
HETATM    5  C   UNL     1      11.315  14.325  24.520  0.00  0.00     0.022 A 
HETATM    6  C   UNL     1      11.821  15.248  23.620  0.00  0.00     0.065 A 
HETATM    7  C   UNL     1       9.915  14.194  24.634  0.00  0.00     0.035 A 
HETATM    8  C   UNL     1       9.051  14.939  23.801  0.00  0.00     0.066 A 
HETATM    9  C   UNL     1       9.626  15.774  22.833  0.00  0.00     0.083 A 
HETATM   10  C   UNL     1      11.009  16.005  22.773  0.00  0.00     0.069 A 
ENDROOT
BRANCH   8  11
HETATM   11  C   UNL     1       7.597  14.628  23.964  0.00  0.00     0.260 C 
HETATM   12  O   UNL     1       7.122  15.018  25.035  0.00  0.00    -0.267 OA
HETATM   13  N   UNL     1       6.829  13.949  22.992  0.00  0.00    -0.318 N 
HETATM   14  C   UNL     1       7.366  13.321  21.784  0.00  0.00     0.159 C 
BRANCH  13  15
HETATM   15  C   UNL     1       5.401  13.819  23.184  0.00  0.00     0.037 A 
HETATM   16  C   UNL     1       4.590  14.937  23.412  0.00  0.00     0.032 A 
HETATM   17  C   UNL     1       3.204  14.812  23.610  0.00  0.00     0.031 A 
HETATM   18  C   UNL     1       2.567  13.566  23.600  0.00  0.00     0.030 A 
HETATM   19  C   UNL     1       3.385  12.459  23.336  0.00  0.00     0.031 A 
HETATM   20  C   UNL     1       4.768  12.576  23.118  0.00  0.00     0.032 A 
BRANCH  18  21
HETATM   21  N   UNL     1       1.208  13.416  23.775  0.00  0.00    -0.377 N 
HETATM   22  C   UNL     1       0.257  13.341  22.657  0.00  0.00     0.149 C 
HETATM   23  C   UNL     1      -0.856  12.345  23.034  0.00  0.00     0.187 C 
HETATM   24  O   UNL     1      -1.502  12.697  24.272  0.00  0.00    -0.388 OA
HETATM   25  C   UNL     1      -0.542  12.757  25.342  0.00  0.00     0.187 C 
HETATM   26  C   UNL     1       0.560  13.785  25.045  0.00  0.00     0.149 C 
ENDBRANCH  18  21
ENDBRANCH  13  15
ENDBRANCH   8  11
BRANCH   9  27
HETATM   27  O   UNL     1       8.917  16.353  21.815  0.00  0.00    -0.360 OA
HETATM   28  H   UNL     1       9.562  16.804  21.239  0.00  0.00     0.217 HD
ENDBRANCH   9  27
BRANCH   1  29
HETATM   29  C   UNL     1      12.527  12.588  26.105  0.00  0.00     0.172 C 
BRANCH  29  30
HETATM   30  C   UNL     1      11.895  12.955  27.453  0.00  0.00     0.034 C 
HETATM   31  C   UNL     1      12.490  14.204  28.093  0.00  0.00     0.008 C 
ENDBRANCH  29  30
BRANCH  29  32
HETATM   32  O   UNL     1      11.936  11.379  25.614  0.00  0.00    -0.389 OA
HETATM   33  H   UNL     1      11.059  11.306  26.025  0.00  0.00     0.210 HD
ENDBRANCH  29  32
ENDBRANCH   1  29
TORSDOF 7
ENDMDL
MODEL 3
REMARK VINA RESULT:    -7.720      2.198      2.930
REMARK INTER + INTRA:         -11.282
REMARK INTER:                 -10.203
REMARK INTRA:                  -1.079
REMARK UNBOUND:                -0.855
REMARK  7 active torsions:
REMARK  status: ('A' for Active; 'I' for Inactive)
REMARK    1  A    between atoms: C_2  and  C_3 
REMARK    2  A    between atoms: C_3  and  O_4 
REMARK    3  A    between atoms: C_3  and  C_5 
REMARK    4  A    between atoms: C_12  and  C_16 
REMARK    5  A    between atoms: C_13  and  O_15 
REMARK       I    between atoms: C_16  and  N_18 
REMARK    6  A    between atoms: N_18  and  C_20 
REMARK    7  A    between atoms: C_23  and  N_26 
ROOT
HETATM    1  C   UNL     1      10.949  12.574  24.287  0.00  0.00     0.095 A 
HETATM    2  N   UNL     1      12.137  13.122  23.960  0.00  0.00    -0.175 NA
HETATM    3  N   UNL     1      11.799  14.206  23.238  0.00  0.00    -0.277 N 
HETATM    4  H   UNL     1      12.544  14.776  22.851  0.00  0.00     0.189 HD
HETATM    5  C   UNL     1       9.861  13.354  23.796  0.00  0.00     0.022 A 
HETATM    6  C   UNL     1      10.450  14.390  23.091  0.00  0.00     0.065 A 
HETATM    7  C   UNL     1       8.453  13.289  23.847  0.00  0.00     0.035 A 
HETATM    8  C   UNL     1       7.662  14.221  23.137  0.00  0.00     0.066 A 
HETATM    9  C   UNL     1       8.317  15.179  22.351  0.00  0.00     0.083 A 
HETATM   10  C   UNL     1       9.713  15.333  22.372  0.00  0.00     0.069 A 
ENDROOT
BRANCH   8  11
HETATM   11  C   UNL     1       6.188  13.973  23.202  0.00  0.00     0.260 C 
HETATM   12  O   UNL     1       5.732  13.419  22.197  0.00  0.00    -0.267 OA
HETATM   13  N   UNL     1       5.382  14.336  24.304  0.00  0.00    -0.318 N 
HETATM   14  C   UNL     1       5.829  15.136  25.446  0.00  0.00     0.159 C 
BRANCH  13  15
HETATM   15  C   UNL     1       3.995  13.928  24.329  0.00  0.00     0.037 A 
HETATM   16  C   UNL     1       2.973  14.785  23.904  0.00  0.00     0.032 A 
HETATM   17  C   UNL     1       1.623  14.393  23.937  0.00  0.00     0.031 A 
HETATM   18  C   UNL     1       1.232  13.134  24.405  0.00  0.00     0.030 A 
HETATM   19  C   UNL     1       2.267  12.273  24.794  0.00  0.00     0.031 A 
HETATM   20  C   UNL     1       3.620  12.649  24.746  0.00  0.00     0.032 A 
BRANCH  18  21
HETATM   21  N   UNL     1      -0.082  12.719  24.433  0.00  0.00    -0.377 N 
HETATM   22  C   UNL     1      -0.933  12.662  23.236  0.00  0.00     0.149 C 
HETATM   23  C   UNL     1      -1.858  11.435  23.358  0.00  0.00     0.187 C 
HETATM   24  O   UNL     1      -2.632  11.458  24.572  0.00  0.00    -0.388 OA
HETATM   25  C   UNL     1      -1.767  11.510  25.721  0.00  0.00     0.187 C 
HETATM   26  C   UNL     1      -0.863  12.753  25.682  0.00  0.00     0.149 C 
ENDBRANCH  18  21
ENDBRANCH  13  15
ENDBRANCH   8  11
BRANCH   9  27
HETATM   27  O   UNL     1       7.680  15.971  21.435  0.00  0.00    -0.360 OA
HETATM   28  H   UNL     1       6.979  16.453  21.913  0.00  0.00     0.217 HD
ENDBRANCH   9  27
BRANCH   1  29
HETATM   29  C   UNL     1      10.917  11.293  25.075  0.00  0.00     0.172 C 
BRANCH  29  30
HETATM   30  C   UNL     1      10.372  10.107  24.268  0.00  0.00     0.034 C 
HETATM   31  C   UNL     1       8.990   9.642  24.714  0.00  0.00     0.008 C 
ENDBRANCH  29  30
BRANCH  29  32
HETATM   32  O   UNL     1      12.199  10.953  25.616  0.00  0.00    -0.389 OA
HETATM   33  H   UNL     1      12.232   9.984  25.675  0.00  0.00     0.210 HD
ENDBRANCH  29  32
ENDBRANCH   1  29
TORSDOF 7
ENDMDL
MODEL 4
REMARK VINA RESULT:    -7.657      1.932      2.471
REMARK INTER + INTRA:         -11.198
REMARK INTER:                 -10.350
REMARK INTRA:                  -0.848
REMARK UNBOUND:                -0.855
REMARK  7 active torsions:
REMARK  status: ('A' for Active; 'I' for Inactive)
REMARK    1  A    between atoms: C_2  and  C_3 
REMARK    2  A    between atoms: C_3  and  O_4 
REMARK    3  A    between atoms: C_3  and  C_5 
REMARK    4  A    between atoms: C_12  and  C_16 
REMARK    5  A    between atoms: C_13  and  O_15 
REMARK       I    between atoms: C_16  and  N_18 
REMARK    6  A    between atoms: N_18  and  C_20 
REMARK    7  A    between atoms: C_23  and  N_26 
ROOT
HETATM    1  C   UNL     1      12.473  13.106  21.585  0.00  0.00     0.095 A 
HETATM    2  N   UNL     1      13.683  13.650  21.822  0.00  0.00    -0.175 NA
HETATM    3  N   UNL     1      13.457  14.496  22.844  0.00  0.00    -0.277 N 
HETATM    4  H   UNL     1      14.233  15.051  23.188  0.00  0.00     0.189 HD
HETATM    5  C   UNL     1      11.493  13.592  22.500  0.00  0.00     0.022 A 
HETATM    6  C   UNL     1      12.160  14.519  23.284  0.00  0.00     0.065 A 
HETATM    7  C   UNL     1      10.120  13.374  22.738  0.00  0.00     0.035 A 
HETATM    8  C   UNL     1       9.427  14.132  23.709  0.00  0.00     0.066 A 
HETATM    9  C   UNL     1      10.132  15.132  24.392  0.00  0.00     0.083 A 
HETATM   10  C   UNL     1      11.520  15.294  24.253  0.00  0.00     0.069 A 
ENDROOT
BRANCH   8  11
HETATM   11  C   UNL     1       7.958  13.862  23.786  0.00  0.00     0.260 C 
HETATM   12  O   UNL     1       7.649  13.029  24.643  0.00  0.00    -0.267 OA
HETATM   13  N   UNL     1       7.002  14.494  22.958  0.00  0.00    -0.318 N 
HETATM   14  C   UNL     1       7.317  15.361  21.821  0.00  0.00     0.159 C 
BRANCH  13  15
HETATM   15  C   UNL     1       5.595  14.268  23.205  0.00  0.00     0.037 A 
HETATM   16  C   UNL     1       4.777  15.271  23.736  0.00  0.00     0.032 A 
HETATM   17  C   UNL     1       3.411  15.050  23.986  0.00  0.00     0.031 A 
HETATM   18  C   UNL     1       2.804  13.816  23.728  0.00  0.00     0.030 A 
HETATM   19  C   UNL     1       3.627  12.832  23.164  0.00  0.00     0.031 A 
HETATM   20  C   UNL     1       4.988  13.050  22.893  0.00  0.00     0.032 A 
BRANCH  18  21
HETATM   21  N   UNL     1       1.465  13.577  23.949  0.00  0.00    -0.377 N 
HETATM   22  C   UNL     1       0.472  13.502  22.867  0.00  0.00     0.149 C 
HETATM   23  C   UNL     1      -0.565  12.424  23.236  0.00  0.00     0.187 C 
HETATM   24  O   UNL     1      -1.176  12.675  24.515  0.00  0.00    -0.388 OA
HETATM   25  C   UNL     1      -0.177  12.739  25.548  0.00  0.00     0.187 C 
HETATM   26  C   UNL     1       0.852  13.844  25.261  0.00  0.00     0.149 C 
ENDBRANCH  18  21
ENDBRANCH  13  15
ENDBRANCH   8  11
BRANCH   9  27
HETATM   27  O   UNL     1       9.532  16.087  25.166  0.00  0.00    -0.360 OA
HETATM   28  H   UNL     1       8.571  16.015  25.015  0.00  0.00     0.217 HD
ENDBRANCH   9  27
BRANCH   1  29
HETATM   29  C   UNL     1      12.311  12.121  20.459  0.00  0.00     0.172 C 
BRANCH  29  30
HETATM   30  C   UNL     1      12.119  10.680  20.947  0.00  0.00     0.034 C 
HETATM   31  C   UNL     1      10.659  10.268  21.093  0.00  0.00     0.008 C 
ENDBRANCH  29  30
BRANCH  29  32
HETATM   32  O   UNL     1      11.240  12.473  19.576  0.00  0.00    -0.389 OA
HETATM   33  H   UNL     1      10.421  12.142  19.980  0.00  0.00     0.210 HD
ENDBRANCH  29  32
ENDBRANCH   1  29
TORSDOF 7
ENDMDL
MODEL 5
REMARK VINA RESULT:    -7.433      2.590      3.887
REMARK INTER + INTRA:         -10.894
REMARK INTER:                 -10.108
REMARK INTRA:                  -0.786
REMARK UNBOUND:                -0.855
REMARK  7 active torsions:
REMARK  status: ('A' for Active; 'I' for Inactive)
REMARK    1  A    between atoms: C_2  and  C_3 
REMARK    2  A    between atoms: C_3  and  O_4 
REMARK    3  A    between atoms: C_3  and  C_5 
REMARK    4  A    between atoms: C_12  and  C_16 
REMARK    5  A    between atoms: C_13  and  O_15 
REMARK       I    between atoms: C_16  and  N_18 
REMARK    6  A    between atoms: N_18  and  C_20 
REMARK    7  A    between atoms: C_23  and  N_26 
ROOT
HETATM    1  C   UNL     1      12.342  12.236  21.161  0.00  0.00     0.095 A 
HETATM    2  N   UNL     1      13.376  12.697  20.429  0.00  0.00    -0.175 NA
HETATM    3  N   UNL     1      13.120  14.013  20.313  0.00  0.00    -0.277 N 
HETATM    4  H   UNL     1      13.762  14.580  19.768  0.00  0.00     0.189 HD
HETATM    5  C   UNL     1      11.458  13.288  21.539  0.00  0.00     0.022 A 
HETATM    6  C   UNL     1      11.976  14.426  20.943  0.00  0.00     0.065 A 
HETATM    7  C   UNL     1      10.271  13.405  22.292  0.00  0.00     0.035 A 
HETATM    8  C   UNL     1       9.591  14.641  22.379  0.00  0.00     0.066 A 
HETATM    9  C   UNL     1      10.106  15.729  21.662  0.00  0.00     0.083 A 
HETATM   10  C   UNL     1      11.341  15.668  20.997  0.00  0.00     0.069 A 
ENDROOT
BRANCH   8  11
HETATM   11  C   UNL     1       8.297  14.595  23.128  0.00  0.00     0.260 C 
HETATM   12  O   UNL     1       8.344  15.137  24.237  0.00  0.00    -0.267 OA
HETATM   13  N   UNL     1       7.124  13.988  22.626  0.00  0.00    -0.318 N 
HETATM   14  C   UNL     1       7.047  13.191  21.401  0.00  0.00     0.159 C 
BRANCH  13  15
HETATM   15  C   UNL     1       5.889  14.119  23.368  0.00  0.00     0.037 A 
HETATM   16  C   UNL     1       5.118  15.284  23.303  0.00  0.00     0.032 A 
HETATM   17  C   UNL     1       3.922  15.417  24.032  0.00  0.00     0.031 A 
HETATM   18  C   UNL     1       3.450  14.397  24.864  0.00  0.00     0.030 A 
HETATM   19  C   UNL     1       4.212  13.222  24.893  0.00  0.00     0.031 A 
HETATM   20  C   UNL     1       5.398  13.073  24.153  0.00  0.00     0.032 A 
BRANCH  18  21
HETATM   21  N   UNL     1       2.273  14.494  25.576  0.00  0.00    -0.377 N 
HETATM   22  C   UNL     1       0.958  14.173  25.004  0.00  0.00     0.149 C 
HETATM   23  C   UNL     1       0.099  13.517  26.102  0.00  0.00     0.187 C 
HETATM   24  O   UNL     1      -0.008  14.345  27.275  0.00  0.00    -0.388 OA
HETATM   25  C   UNL     1       1.297  14.635  27.808  0.00  0.00     0.187 C 
HETATM   26  C   UNL     1       2.177  15.350  26.771  0.00  0.00     0.149 C 
ENDBRANCH  18  21
ENDBRANCH  13  15
ENDBRANCH   8  11
BRANCH   9  27
HETATM   27  O   UNL     1       9.421  16.898  21.464  0.00  0.00    -0.360 OA
HETATM   28  H   UNL     1       9.321  17.010  20.500  0.00  0.00     0.217 HD
ENDBRANCH   9  27
BRANCH   1  29
HETATM   29  C   UNL     1      12.252  10.766  21.470  0.00  0.00     0.172 C 
BRANCH  29  30
HETATM   30  C   UNL     1      12.541  10.444  22.942  0.00  0.00     0.034 C 
HETATM   31  C   UNL     1      11.296  10.402  23.820  0.00  0.00     0.008 C 
ENDBRANCH  29  30
BRANCH  29  32
HETATM   32  O   UNL     1      10.985  10.208  21.099  0.00  0.00    -0.389 OA
HETATM   33  H   UNL     1      10.312  10.879  21.300  0.00  0.00     0.210 HD
ENDBRANCH  29  32
ENDBRANCH   1  29
TORSDOF 7
ENDMDL
MODEL 6
REMARK VINA RESULT:    -7.413      1.574      1.836
REMARK INTER + INTRA:         -10.868
REMARK INTER:                  -9.899
REMARK INTRA:                  -0.969
REMARK UNBOUND:                -0.855
REMARK  7 active torsions:
REMARK  status: ('A' for Active; 'I' for Inactive)
REMARK    1  A    between atoms: C_2  and  C_3 
REMARK    2  A    between atoms: C_3  and  O_4 
REMARK    3  A    between atoms: C_3  and  C_5 
REMARK    4  A    between atoms: C_12  and  C_16 
REMARK    5  A    between atoms: C_13  and  O_15 
REMARK       I    between atoms: C_16  and  N_18 
REMARK    6  A    between atoms: N_18  and  C_20 
REMARK    7  A    between atoms: C_23  and  N_26 
ROOT
HETATM    1  C   UNL     1      11.570  14.423  22.545  0.00  0.00     0.095 A 
HETATM    2  N   UNL     1      12.817  14.615  23.020  0.00  0.00    -0.175 NA
HETATM    3  N   UNL     1      12.633  14.758  24.345  0.00  0.00    -0.277 N 
HETATM    4  H   UNL     1      13.445  14.943  24.924  0.00  0.00     0.189 HD
HETATM    5  C   UNL     1      10.607  14.405  23.596  0.00  0.00     0.022 A 
HETATM    6  C   UNL     1      11.329  14.659  24.750  0.00  0.00     0.065 A 
HETATM    7  C   UNL     1       9.211  14.229  23.701  0.00  0.00     0.035 A 
HETATM    8  C   UNL     1       8.558  14.375  24.945  0.00  0.00     0.066 A 
HETATM    9  C   UNL     1       9.328  14.741  26.056  0.00  0.00     0.083 A 
HETATM   10  C   UNL     1      10.729  14.814  26.002  0.00  0.00     0.069 A 
ENDROOT
BRANCH   8  11
HETATM   11  C   UNL     1       7.067  14.257  24.890  0.00  0.00     0.260 C 
HETATM   12  O   UNL     1       6.479  15.339  24.977  0.00  0.00    -0.267 OA
HETATM   13  N   UNL     1       6.384  13.027  24.752  0.00  0.00    -0.318 N 
HETATM   14  C   UNL     1       7.012  11.706  24.808  0.00  0.00     0.159 C 
BRANCH  13  15
HETATM   15  C   UNL     1       4.950  13.033  24.568  0.00  0.00     0.037 A 
HETATM   16  C   UNL     1       4.077  13.243  25.641  0.00  0.00     0.032 A 
HETATM   17  C   UNL     1       2.681  13.239  25.466  0.00  0.00     0.031 A 
HETATM   18  C   UNL     1       2.096  13.013  24.215  0.00  0.00     0.030 A 
HETATM   19  C   UNL     1       2.982  12.838  23.144  0.00  0.00     0.031 A 
HETATM   20  C   UNL     1       4.378  12.861  23.306  0.00  0.00     0.032 A 
BRANCH  18  21
HETATM   21  N   UNL     1       0.733  13.019  24.013  0.00  0.00    -0.377 N 
HETATM   22  C   UNL     1       0.116  13.243  22.697  0.00  0.00     0.149 C 
HETATM   23  C   UNL     1      -1.140  12.357  22.595  0.00  0.00     0.187 C 
HETATM   24  O   UNL     1      -2.063  12.598  23.673  0.00  0.00    -0.388 OA
HETATM   25  C   UNL     1      -1.427  12.367  24.943  0.00  0.00     0.187 C 
HETATM   26  C   UNL     1      -0.199  13.273  25.125  0.00  0.00     0.149 C 
ENDBRANCH  18  21
ENDBRANCH  13  15
ENDBRANCH   8  11
BRANCH   9  27
HETATM   27  O   UNL     1       8.793  15.150  27.248  0.00  0.00    -0.360 OA
HETATM   28  H   UNL     1       8.388  16.024  27.094  0.00  0.00     0.217 HD
ENDBRANCH   9  27
BRANCH   1  29
HETATM   29  C   UNL     1      11.358  14.264  21.063  0.00  0.00     0.172 C 
BRANCH  29  30
HETATM   30  C   UNL     1      10.330  15.251  20.496  0.00  0.00     0.034 C 
HETATM   31  C   UNL     1       9.034  14.594  20.034  0.00  0.00     0.008 C 
ENDBRANCH  29  30
BRANCH  29  32
HETATM   32  O   UNL     1      12.580  14.370  20.324  0.00  0.00    -0.389 OA
HETATM   33  H   UNL     1      13.211  14.847  20.887  0.00  0.00     0.210 HD
ENDBRANCH  29  32
ENDBRANCH   1  29
TORSDOF 7
ENDMDL
MODEL 7
REMARK VINA RESULT:    -7.408      2.145      3.131
REMARK INTER + INTRA:         -10.861
REMARK INTER:                 -10.128
REMARK INTRA:                  -0.733
REMARK UNBOUND:                -0.855
REMARK  7 active torsions:
REMARK  status: ('A' for Active; 'I' for Inactive)
REMARK    1  A    between atoms: C_2  and  C_3 
REMARK    2  A    between atoms: C_3  and  O_4 
REMARK    3  A    between atoms: C_3  and  C_5 
REMARK    4  A    between atoms: C_12  and  C_16 
REMARK    5  A    between atoms: C_13  and  O_15 
REMARK       I    between atoms: C_16  and  N_18 
REMARK    6  A    between atoms: N_18  and  C_20 
REMARK    7  A    between atoms: C_23  and  N_26 
ROOT
HETATM    1  C   UNL     1      10.380  14.461  21.324  0.00  0.00     0.095 A 
HETATM    2  N   UNL     1      11.612  13.979  21.061  0.00  0.00    -0.175 NA
HETATM    3  N   UNL     1      11.431  12.646  21.028  0.00  0.00    -0.277 N 
HETATM    4  H   UNL     1      12.241  12.056  20.868  0.00  0.00     0.189 HD
HETATM    5  C   UNL     1       9.417  13.413  21.414  0.00  0.00     0.022 A 
HETATM    6  C   UNL     1      10.141  12.244  21.249  0.00  0.00     0.065 A 
HETATM    7  C   UNL     1       8.028  13.318  21.639  0.00  0.00     0.035 A 
HETATM    8  C   UNL     1       7.402  12.057  21.761  0.00  0.00     0.066 A 
HETATM    9  C   UNL     1       8.206  10.912  21.695  0.00  0.00     0.083 A 
HETATM   10  C   UNL     1       9.569  10.975  21.363  0.00  0.00     0.069 A 
ENDROOT
BRANCH   8  11
HETATM   11  C   UNL     1       5.944  12.109  22.095  0.00  0.00     0.260 C 
HETATM   12  O   UNL     1       5.218  11.599  21.237  0.00  0.00    -0.267 OA
HETATM   13  N   UNL     1       5.434  12.688  23.279  0.00  0.00    -0.318 N 
HETATM   14  C   UNL     1       6.221  13.449  24.250  0.00  0.00     0.159 C 
BRANCH  13  15
HETATM   15  C   UNL     1       4.023  12.564  23.574  0.00  0.00     0.037 A 
HETATM   16  C   UNL     1       3.507  11.430  24.211  0.00  0.00     0.032 A 
HETATM   17  C   UNL     1       2.135  11.303  24.489  0.00  0.00     0.031 A 
HETATM   18  C   UNL     1       1.216  12.297  24.134  0.00  0.00     0.030 A 
HETATM   19  C   UNL     1       1.750  13.441  23.529  0.00  0.00     0.031 A 
HETATM   20  C   UNL     1       3.123  13.585  23.265  0.00  0.00     0.032 A 
BRANCH  18  21
HETATM   21  N   UNL     1      -0.132  12.205  24.410  0.00  0.00    -0.377 N 
HETATM   22  C   UNL     1      -1.165  12.168  23.365  0.00  0.00     0.149 C 
HETATM   23  C   UNL     1      -2.289  11.221  23.829  0.00  0.00     0.187 C 
HETATM   24  O   UNL     1      -2.826  11.603  25.109  0.00  0.00    -0.388 OA
HETATM   25  C   UNL     1      -1.788  11.626  26.106  0.00  0.00     0.187 C 
HETATM   26  C   UNL     1      -0.668  12.605  25.722  0.00  0.00     0.149 C 
ENDBRANCH  18  21
ENDBRANCH  13  15
ENDBRANCH   8  11
BRANCH   9  27
HETATM   27  O   UNL     1       7.771   9.661  22.038  0.00  0.00    -0.360 OA
HETATM   28  H   UNL     1       6.949   9.498  21.540  0.00  0.00     0.217 HD
ENDBRANCH   9  27
BRANCH   1  29
HETATM   29  C   UNL     1      10.184  15.944  21.483  0.00  0.00     0.172 C 
BRANCH  29  30
HETATM   30  C   UNL     1      10.802  16.495  22.775  0.00  0.00     0.034 C 
HETATM   31  C   UNL     1      10.165  15.944  24.046  0.00  0.00     0.008 C 
ENDBRANCH  29  30
BRANCH  29  32
HETATM   32  O   UNL     1      10.683  16.683  20.362  0.00  0.00    -0.389 OA
HETATM   33  H   UNL     1      10.150  17.493  20.298  0.00  0.00     0.210 HD
ENDBRANCH  29  32
ENDBRANCH   1  29
TORSDOF 7
ENDMDL
MODEL 8
REMARK VINA RESULT:    -7.374      2.300      3.820
REMARK INTER + INTRA:         -10.815
REMARK INTER:                  -9.943
REMARK INTRA:                  -0.872
REMARK UNBOUND:                -0.855
REMARK  7 active torsions:
REMARK  status: ('A' for Active; 'I' for Inactive)
REMARK    1  A    between atoms: C_2  and  C_3 
REMARK    2  A    between atoms: C_3  and  O_4 
REMARK    3  A    between atoms: C_3  and  C_5 
REMARK    4  A    between atoms: C_12  and  C_16 
REMARK    5  A    between atoms: C_13  and  O_15 
REMARK       I    between atoms: C_16  and  N_18 
REMARK    6  A    between atoms: N_18  and  C_20 
REMARK    7  A    between atoms: C_23  and  N_26 
ROOT
HETATM    1  C   UNL     1      12.467  12.465  23.610  0.00  0.00     0.095 A 
HETATM    2  N   UNL     1      13.683  12.764  23.111  0.00  0.00    -0.175 NA
HETATM    3  N   UNL     1      13.416  13.648  22.132  0.00  0.00    -0.277 N 
HETATM    4  H   UNL     1      14.192  14.006  21.584  0.00  0.00     0.189 HD
HETATM    5  C   UNL     1      11.438  13.205  22.958  0.00  0.00     0.022 A 
HETATM    6  C   UNL     1      12.087  13.941  21.981  0.00  0.00     0.065 A 
HETATM    7  C   UNL     1      10.036  13.319  23.066  0.00  0.00     0.035 A 
HETATM    8  C   UNL     1       9.305  14.114  22.153  0.00  0.00     0.066 A 
HETATM    9  C   UNL     1      10.007  14.745  21.118  0.00  0.00     0.083 A 
HETATM   10  C   UNL     1      11.410  14.737  21.055  0.00  0.00     0.069 A 
ENDROOT
BRANCH   8  11
HETATM   11  C   UNL     1       7.820  14.064  22.327  0.00  0.00     0.260 C 
HETATM   12  O   UNL     1       7.212  13.715  21.310  0.00  0.00    -0.267 OA
HETATM   13  N   UNL     1       7.162  14.385  23.535  0.00  0.00    -0.318 N 
HETATM   14  C   UNL     1       7.808  14.959  24.717  0.00  0.00     0.159 C 
BRANCH  13  15
HETATM   15  C   UNL     1       5.735  14.172  23.641  0.00  0.00     0.037 A 
HETATM   16  C   UNL     1       5.198  12.888  23.786  0.00  0.00     0.032 A 
HETATM   17  C   UNL     1       3.810  12.678  23.878  0.00  0.00     0.031 A 
HETATM   18  C   UNL     1       2.899  13.738  23.819  0.00  0.00     0.030 A 
HETATM   19  C   UNL     1       3.452  15.020  23.709  0.00  0.00     0.031 A 
HETATM   20  C   UNL     1       4.838  15.241  23.636  0.00  0.00     0.032 A 
BRANCH  18  21
HETATM   21  N   UNL     1       1.536  13.562  23.924  0.00  0.00    -0.377 N 
HETATM   22  C   UNL     1       0.645  13.469  22.758  0.00  0.00     0.149 C 
HETATM   23  C   UNL     1      -0.467  12.451  23.079  0.00  0.00     0.187 C 
HETATM   24  O   UNL     1      -1.182  12.790  24.281  0.00  0.00    -0.388 OA
HETATM   25  C   UNL     1      -0.280  12.868  25.400  0.00  0.00     0.187 C 
HETATM   26  C   UNL     1       0.816  13.918  25.159  0.00  0.00     0.149 C 
ENDBRANCH  18  21
ENDBRANCH  13  15
ENDBRANCH   8  11
BRANCH   9  27
HETATM   27  O   UNL     1       9.402  15.333  20.041  0.00  0.00    -0.360 OA
HETATM   28  H   UNL     1      10.090  15.463  19.362  0.00  0.00     0.217 HD
ENDBRANCH   9  27
BRANCH   1  29
HETATM   29  C   UNL     1      12.350  11.452  24.716  0.00  0.00     0.172 C 
BRANCH  29  30
HETATM   30  C   UNL     1      11.733  12.032  25.996  0.00  0.00     0.034 C 
HETATM   31  C   UNL     1      10.313  11.549  26.270  0.00  0.00     0.008 C 
ENDBRANCH  29  30
BRANCH  29  32
HETATM   32  O   UNL     1      11.614  10.290  24.316  0.00  0.00    -0.389 OA
HETATM   33  H   UNL     1      11.499  10.346  23.354  0.00  0.00     0.210 HD
ENDBRANCH  29  32
ENDBRANCH   1  29
TORSDOF 7
ENDMDL
MODEL 9
REMARK VINA RESULT:    -7.356      2.090      9.726
REMARK INTER + INTRA:         -10.791
REMARK INTER:                  -9.936
REMARK INTRA:                  -0.855
REMARK UNBOUND:                -0.855
REMARK  7 active torsions:
REMARK  status: ('A' for Active; 'I' for Inactive)
REMARK    1  A    between atoms: C_2  and  C_3 
REMARK    2  A    between atoms: C_3  and  O_4 
REMARK    3  A    between atoms: C_3  and  C_5 
REMARK    4  A    between atoms: C_12  and  C_16 
REMARK    5  A    between atoms: C_13  and  O_15 
REMARK       I    between atoms: C_16  and  N_18 
REMARK    6  A    between atoms: N_18  and  C_20 
REMARK    7  A    between atoms: C_23  and  N_26 
ROOT
HETATM    1  C   UNL     1       0.324  12.873  24.810  0.00  0.00     0.095 A 
HETATM    2  N   UNL     1      -0.514  13.281  25.784  0.00  0.00    -0.175 NA
HETATM    3  N   UNL     1       0.226  14.150  26.496  0.00  0.00    -0.277 N 
HETATM    4  H   UNL     1      -0.193  14.578  27.315  0.00  0.00     0.189 HD
HETATM    5  C   UNL     1       1.586  13.531  24.897  0.00  0.00     0.022 A 
HETATM    6  C   UNL     1       1.499  14.330  26.024  0.00  0.00     0.065 A 
HETATM    7  C   UNL     1       2.795  13.523  24.169  0.00  0.00     0.035 A 
HETATM    8  C   UNL     1       3.911  14.263  24.619  0.00  0.00     0.066 A 
HETATM    9  C   UNL     1       3.796  14.964  25.827  0.00  0.00     0.083 A 
HETATM   10  C   UNL     1       2.574  15.076  26.510  0.00  0.00     0.069 A 
ENDROOT
BRANCH   8  11
HETATM   11  C   UNL     1       5.153  14.085  23.804  0.00  0.00     0.260 C 
HETATM   12  O   UNL     1       5.311  14.954  22.941  0.00  0.00    -0.267 OA
HETATM   13  N   UNL     1       6.067  13.024  23.993  0.00  0.00    -0.318 N 
HETATM   14  C   UNL     1       5.856  11.880  24.881  0.00  0.00     0.159 C 
BRANCH  13  15
HETATM   15  C   UNL     1       7.307  13.019  23.247  0.00  0.00     0.037 A 
HETATM   16  C   UNL     1       7.392  12.442  21.975  0.00  0.00     0.032 A 
HETATM   17  C   UNL     1       8.598  12.427  21.253  0.00  0.00     0.031 A 
HETATM   18  C   UNL     1       9.775  12.977  21.774  0.00  0.00     0.030 A 
HETATM   19  C   UNL     1       9.668  13.581  23.033  0.00  0.00     0.031 A 
HETATM   20  C   UNL     1       8.462  13.619  23.753  0.00  0.00     0.032 A 
BRANCH  18  21
HETATM   21  N   UNL     1      10.967  12.990  21.081  0.00  0.00    -0.377 N 
HETATM   22  C   UNL     1      11.818  14.184  20.967  0.00  0.00     0.149 C 
HETATM   23  C   UNL     1      13.291  13.732  20.998  0.00  0.00     0.187 C 
HETATM   24  O   UNL     1      13.582  12.760  19.977  0.00  0.00    -0.388 OA
HETATM   25  C   UNL     1      12.734  11.607  20.122  0.00  0.00     0.187 C 
HETATM   26  C   UNL     1      11.249  11.992  20.035  0.00  0.00     0.149 C 
ENDBRANCH  18  21
ENDBRANCH  13  15
ENDBRANCH   8  11
BRANCH   9  27
HETATM   27  O   UNL     1       4.860  15.510  26.491  0.00  0.00    -0.360 OA
HETATM   28  H   UNL     1       5.648  14.988  26.247  0.00  0.00     0.217 HD
ENDBRANCH   9  27
BRANCH   1  29
HETATM   29  C   UNL     1      -0.140  11.841  23.818  0.00  0.00     0.172 C 
BRANCH  29  30
HETATM   30  C   UNL     1      -1.467  11.182  24.216  0.00  0.00     0.034 C 
HETATM   31  C   UNL     1      -2.649  11.606  23.351  0.00  0.00     0.008 C 
ENDBRANCH  29  30
BRANCH  29  32
HETATM   32  O   UNL     1      -0.249  12.370  22.491  0.00  0.00    -0.389 OA
HETATM   33  H   UNL     1      -1.104  12.827  22.439  0.00  0.00     0.210 HD
ENDBRANCH  29  32
ENDBRANCH   1  29
TORSDOF 7
ENDMDL
