REMARK  7 active torsions:
REMARK  status: ('A' for Active; 'I' for Inactive)
REMARK    1  A    between atoms: C_2  and  C_3 
REMARK    2  A    between atoms: C_3  and  O_4 
REMARK    3  A    between atoms: C_3  and  C_5 
REMARK    4  A    between atoms: C_12  and  C_16 
REMARK    5  A    between atoms: C_13  and  O_15 
REMARK       I    between atoms: C_16  and  N_18 
REMARK    6  A    between atoms: N_18  and  C_20 
REMARK    7  A    between atoms: C_23  and  N_26 
ROOT
HETATM    1  C   UNL     1       4.380  -1.470  -2.050  0.00  0.00     0.095 A 
HETATM    2  N   UNL     1       5.018  -0.291  -2.193  0.00  0.00    -0.175 NA
HETATM    3  N   UNL     1       6.293  -0.579  -1.873  0.00  0.00    -0.277 N 
HETATM    4  H   UNL     1       6.972   0.175  -1.883  0.00  0.00     0.189 HD
HETATM    5  C   UNL     1       5.281  -2.510  -1.677  0.00  0.00     0.022 A 
HETATM    6  C   UNL     1       6.511  -1.889  -1.539  0.00  0.00     0.065 A 
HETATM    7  C   UNL     1       5.193  -3.894  -1.418  0.00  0.00     0.035 A 
HETATM    8  C   UNL     1       6.320  -4.615  -0.963  0.00  0.00     0.066 A 
HETATM    9  C   UNL     1       7.508  -3.908  -0.736  0.00  0.00     0.083 A 
HETATM   10  C   UNL     1       7.652  -2.557  -1.090  0.00  0.00     0.069 A 
ENDROOT
BRANCH   8  11
HETATM   11  C   UNL     1       6.057  -6.051  -0.636  0.00  0.00     0.260 C 
HETATM   12  O   UNL     1       4.968  -6.245  -0.087  0.00  0.00    -0.267 OA
HETATM   13  N   UNL     1       6.963  -7.097  -0.922  0.00  0.00    -0.318 N 
HETATM   14  C   UNL     1       8.328  -6.915  -1.418  0.00  0.00     0.159 C 
BRANCH  13  15
HETATM   15  C   UNL     1       6.556  -8.466  -0.693  0.00  0.00     0.037 A 
HETATM   16  C   UNL     1       5.245  -8.889  -0.937  0.00  0.00     0.032 A 
HETATM   17  C   UNL     1       4.845 -10.217  -0.705  0.00  0.00     0.031 A 
HETATM   18  C   UNL     1       5.733 -11.178  -0.209  0.00  0.00     0.030 A 
HETATM   19  C   UNL     1       7.051 -10.750  -0.002  0.00  0.00     0.031 A 
HETATM   20  C   UNL     1       7.464  -9.430  -0.250  0.00  0.00     0.032 A 
BRANCH  18  21
HETATM   21  N   UNL     1       5.372 -12.490   0.012  0.00  0.00    -0.377 N 
HETATM   22  C   UNL     1       4.204 -13.120  -0.620  0.00  0.00     0.149 C 
HETATM   23  C   UNL     1       4.556 -14.587  -0.933  0.00  0.00     0.187 C 
HETATM   24  O   UNL     1       4.990 -15.303   0.238  0.00  0.00    -0.388 OA
HETATM   25  C   UNL     1       6.135 -14.660   0.827  0.00  0.00     0.187 C 
HETATM   26  C   UNL     1       5.819 -13.208   1.218  0.00  0.00     0.149 C 
ENDBRANCH  18  21
ENDBRANCH  13  15
ENDBRANCH   8  11
BRANCH   9  27
HETATM   27  O   UNL     1       8.585  -4.430  -0.072  0.00  0.00    -0.360 OA
HETATM   28  H   UNL     1       8.234  -4.992   0.644  0.00  0.00     0.217 HD
ENDBRANCH   9  27
BRANCH   1  29
HETATM   29  C   UNL     1       2.895  -1.541  -2.283  0.00  0.00     0.172 C 
BRANCH  29  30
HETATM   30  C   UNL     1       2.531  -1.793  -3.752  0.00  0.00     0.034 C 
HETATM   31  C   UNL     1       2.985  -3.151  -4.275  0.00  0.00     0.008 C 
ENDBRANCH  29  30
BRANCH  29  32
HETATM   32  O   UNL     1       2.260  -2.525  -1.458  0.00  0.00    -0.389 OA
HETATM   33  H   UNL     1       1.302  -2.392  -1.547  0.00  0.00     0.210 HD
ENDBRANCH  29  32
ENDBRANCH   1  29
TORSDOF 7
