MODEL 1
REMARK VINA RESULT:    -8.801      0.000      0.000
REMARK INTER + INTRA:         -12.586
REMARK INTER:                 -11.464
REMARK INTRA:                  -1.122
REMARK UNBOUND:                -0.955
REMARK  6 active torsions:
REMARK  status: ('A' for Active; 'I' for Inactive)
REMARK    1  A    between atoms: C_5  and  C_6 
REMARK    2  A    between atoms: C_6  and  C_7 
REMARK    3  A    between atoms: C_14  and  C_18 
REMARK    4  A    between atoms: C_15  and  O_17 
REMARK       I    between atoms: C_18  and  N_20 
REMARK    5  A    between atoms: N_20  and  C_22 
REMARK    6  A    between atoms: C_25  and  N_28 
ROOT
HETATM    1  C   UNL     1      -1.760  16.777  19.958  0.00  0.00     0.067 A 
HETATM    2  N   UNL     1      -2.634  17.708  19.532  0.00  0.00    -0.178 NA
HETATM    3  N   UNL     1      -3.812  17.299  20.028  0.00  0.00    -0.277 N 
HETATM    4  H   UNL     1      -4.639  17.842  19.806  0.00  0.00     0.189 HD
HETATM    5  C   UNL     1      -2.397  15.804  20.782  0.00  0.00     0.019 A 
HETATM    6  C   UNL     1      -3.743  16.130  20.736  0.00  0.00     0.065 A 
HETATM    7  C   UNL     1      -2.012  14.654  21.500  0.00  0.00     0.035 C 
HETATM    8  C   UNL     1      -2.989  13.767  22.027  0.00  0.00     0.066 C 
HETATM    9  C   UNL     1      -4.338  14.094  21.841  0.00  0.00     0.083 C 
HETATM   10  C   UNL     1      -4.741  15.320  21.289  0.00  0.00     0.069 C 
ENDROOT
BRANCH   8  11
HETATM   11  C   UNL     1      -2.438  12.467  22.538  0.00  0.00     0.260 C 
HETATM   12  O   UNL     1      -2.884  11.491  21.922  0.00  0.00    -0.267 OA
HETATM   13  N   UNL     1      -1.529  12.335  23.620  0.00  0.00    -0.318 N 
HETATM   14  C   UNL     1      -1.100  13.438  24.478  0.00  0.00     0.159 C 
BRANCH  13  15
HETATM   15  C   UNL     1      -0.999  11.021  23.957  0.00  0.00     0.037 A 
HETATM   16  C   UNL     1      -1.581  10.237  24.956  0.00  0.00     0.032 A 
HETATM   17  C   UNL     1      -1.031   9.007  25.347  0.00  0.00     0.031 A 
HETATM   18  C   UNL     1       0.124   8.482  24.763  0.00  0.00     0.030 A 
HETATM   19  C   UNL     1       0.654   9.218  23.698  0.00  0.00     0.031 A 
HETATM   20  C   UNL     1       0.105  10.461  23.299  0.00  0.00     0.032 A 
BRANCH  18  21
HETATM   21  N   UNL     1       0.687   7.315  25.242  0.00  0.00    -0.377 N 
HETATM   22  C   UNL     1       1.845   7.249  26.143  0.00  0.00     0.149 C 
HETATM   23  C   UNL     1       1.474   6.510  27.438  0.00  0.00     0.187 C 
HETATM   24  O   UNL     1       0.929   5.207  27.167  0.00  0.00    -0.388 OA
HETATM   25  C   UNL     1      -0.255   5.327  26.360  0.00  0.00     0.187 C 
HETATM   26  C   UNL     1       0.037   6.009  25.014  0.00  0.00     0.149 C 
ENDBRANCH  18  21
ENDBRANCH  13  15
ENDBRANCH   8  11
BRANCH   9  27
HETATM   27  O   UNL     1      -5.370  13.225  22.068  0.00  0.00    -0.360 OA
HETATM   28  H   UNL     1      -5.933  13.629  22.754  0.00  0.00     0.217 HD
ENDBRANCH   9  27
BRANCH   1  29
HETATM   29  C   UNL     1      -0.335  16.864  19.498  0.00  0.00     0.066 C 
BRANCH  29  30
HETATM   30  C   UNL     1       0.650  17.457  20.523  0.00  0.00    -0.009 C 
HETATM   31  C   UNL     1       2.007  16.728  20.484  0.00  0.00     0.005 C 
HETATM   32  C   UNL     1       2.519  16.786  21.914  0.00  0.00     0.000 C 
HETATM   33  C   UNL     1       1.258  16.575  22.732  0.00  0.00     0.000 C 
HETATM   34  C   UNL     1       0.192  17.378  21.994  0.00  0.00     0.005 C 
ENDBRANCH  29  30
ENDBRANCH   1  29
TORSDOF 6
ENDMDL
MODEL 2
REMARK VINA RESULT:    -8.673      1.933      2.423
REMARK INTER + INTRA:         -12.417
REMARK INTER:                 -11.545
REMARK INTRA:                  -0.873
REMARK UNBOUND:                -0.955
REMARK  6 active torsions:
REMARK  status: ('A' for Active; 'I' for Inactive)
REMARK    1  A    between atoms: C_5  and  C_6 
REMARK    2  A    between atoms: C_6  and  C_7 
REMARK    3  A    between atoms: C_14  and  C_18 
REMARK    4  A    between atoms: C_15  and  O_17 
REMARK       I    between atoms: C_18  and  N_20 
REMARK    5  A    between atoms: N_20  and  C_22 
REMARK    6  A    between atoms: C_25  and  N_28 
ROOT
HETATM    1  C   UNL     1      -1.037  16.639  20.402  0.00  0.00     0.067 A 
HETATM    2  N   UNL     1      -1.676  17.412  19.505  0.00  0.00    -0.178 NA
HETATM    3  N   UNL     1      -2.971  17.101  19.670  0.00  0.00    -0.277 N 
HETATM    4  H   UNL     1      -3.651  17.549  19.067  0.00  0.00     0.189 HD
HETATM    5  C   UNL     1      -1.956  15.876  21.180  0.00  0.00     0.019 A 
HETATM    6  C   UNL     1      -3.197  16.142  20.620  0.00  0.00     0.065 A 
HETATM    7  C   UNL     1      -1.886  14.947  22.237  0.00  0.00     0.035 C 
HETATM    8  C   UNL     1      -3.026  14.186  22.611  0.00  0.00     0.066 C 
HETATM    9  C   UNL     1      -4.222  14.417  21.921  0.00  0.00     0.083 C 
HETATM   10  C   UNL     1      -4.360  15.460  20.992  0.00  0.00     0.069 C 
ENDROOT
BRANCH   8  11
HETATM   11  C   UNL     1      -2.739  13.065  23.568  0.00  0.00     0.260 C 
HETATM   12  O   UNL     1      -2.984  11.954  23.082  0.00  0.00    -0.267 OA
HETATM   13  N   UNL     1      -2.267  13.229  24.897  0.00  0.00    -0.318 N 
HETATM   14  C   UNL     1      -2.116  14.519  25.568  0.00  0.00     0.159 C 
BRANCH  13  15
HETATM   15  C   UNL     1      -1.940  12.053  25.693  0.00  0.00     0.037 A 
HETATM   16  C   UNL     1      -2.702  11.695  26.807  0.00  0.00     0.032 A 
HETATM   17  C   UNL     1      -2.349  10.614  27.629  0.00  0.00     0.031 A 
HETATM   18  C   UNL     1      -1.224   9.824  27.388  0.00  0.00     0.030 A 
HETATM   19  C   UNL     1      -0.512  10.120  26.220  0.00  0.00     0.031 A 
HETATM   20  C   UNL     1      -0.861  11.211  25.387  0.00  0.00     0.032 A 
BRANCH  18  21
HETATM   21  N   UNL     1      -0.858   8.831  28.276  0.00  0.00    -0.377 N 
HETATM   22  C   UNL     1      -0.569   7.438  27.906  0.00  0.00     0.149 C 
HETATM   23  C   UNL     1       0.859   7.059  28.327  0.00  0.00     0.187 C 
HETATM   24  O   UNL     1       1.082   7.301  29.727  0.00  0.00    -0.388 OA
HETATM   25  C   UNL     1       0.879   8.693  30.025  0.00  0.00     0.187 C 
HETATM   26  C   UNL     1      -0.550   9.147  29.684  0.00  0.00     0.149 C 
ENDBRANCH  18  21
ENDBRANCH  13  15
ENDBRANCH   8  11
BRANCH   9  27
HETATM   27  O   UNL     1      -5.317  13.599  21.999  0.00  0.00    -0.360 OA
HETATM   28  H   UNL     1      -5.195  12.901  21.329  0.00  0.00     0.217 HD
ENDBRANCH   9  27
BRANCH   1  29
HETATM   29  C   UNL     1       0.462  16.654  20.426  0.00  0.00     0.066 C 
BRANCH  29  30
HETATM   30  C   UNL     1       1.109  15.765  21.506  0.00  0.00    -0.009 C 
HETATM   31  C   UNL     1       2.340  16.449  22.132  0.00  0.00     0.005 C 
HETATM   32  C   UNL     1       3.279  15.307  22.486  0.00  0.00     0.000 C 
HETATM   33  C   UNL     1       3.111  14.357  21.314  0.00  0.00     0.000 C 
HETATM   34  C   UNL     1       1.617  14.396  21.009  0.00  0.00     0.005 C 
ENDBRANCH  29  30
ENDBRANCH   1  29
TORSDOF 6
ENDMDL
MODEL 3
REMARK VINA RESULT:    -8.632      1.426      2.092
REMARK INTER + INTRA:         -12.362
REMARK INTER:                 -11.405
REMARK INTRA:                  -0.957
REMARK UNBOUND:                -0.955
REMARK  6 active torsions:
REMARK  status: ('A' for Active; 'I' for Inactive)
REMARK    1  A    between atoms: C_5  and  C_6 
REMARK    2  A    between atoms: C_6  and  C_7 
REMARK    3  A    between atoms: C_14  and  C_18 
REMARK    4  A    between atoms: C_15  and  O_17 
REMARK       I    between atoms: C_18  and  N_20 
REMARK    5  A    between atoms: N_20  and  C_22 
REMARK    6  A    between atoms: C_25  and  N_28 
ROOT
HETATM    1  C   UNL     1      -1.152  16.611  20.568  0.00  0.00     0.067 A 
HETATM    2  N   UNL     1      -1.901  17.375  19.752  0.00  0.00    -0.178 NA
HETATM    3  N   UNL     1      -3.158  16.969  19.987  0.00  0.00    -0.277 N 
HETATM    4  H   UNL     1      -3.906  17.394  19.451  0.00  0.00     0.189 HD
HETATM    5  C   UNL     1      -1.964  15.755  21.368  0.00  0.00     0.019 A 
HETATM    6  C   UNL     1      -3.254  15.958  20.904  0.00  0.00     0.065 A 
HETATM    7  C   UNL     1      -1.761  14.790  22.375  0.00  0.00     0.035 C 
HETATM    8  C   UNL     1      -2.820  13.938  22.787  0.00  0.00     0.066 C 
HETATM    9  C   UNL     1      -4.073  14.115  22.189  0.00  0.00     0.083 C 
HETATM   10  C   UNL     1      -4.343  15.184  21.320  0.00  0.00     0.069 C 
ENDROOT
BRANCH   8  11
HETATM   11  C   UNL     1      -2.394  12.800  23.671  0.00  0.00     0.260 C 
HETATM   12  O   UNL     1      -2.511  11.701  23.115  0.00  0.00    -0.267 OA
HETATM   13  N   UNL     1      -1.933  12.934  25.007  0.00  0.00    -0.318 N 
HETATM   14  C   UNL     1      -1.930  14.188  25.758  0.00  0.00     0.159 C 
BRANCH  13  15
HETATM   15  C   UNL     1      -1.464  11.757  25.725  0.00  0.00     0.037 A 
HETATM   16  C   UNL     1      -0.251  11.145  25.401  0.00  0.00     0.032 A 
HETATM   17  C   UNL     1       0.173   9.963  26.029  0.00  0.00     0.031 A 
HETATM   18  C   UNL     1      -0.580   9.327  27.018  0.00  0.00     0.030 A 
HETATM   19  C   UNL     1      -1.748   9.989  27.412  0.00  0.00     0.031 A 
HETATM   20  C   UNL     1      -2.183  11.180  26.782  0.00  0.00     0.032 A 
BRANCH  18  21
HETATM   21  N   UNL     1      -0.174   8.115  27.542  0.00  0.00    -0.377 N 
HETATM   22  C   UNL     1      -0.989   6.892  27.562  0.00  0.00     0.149 C 
HETATM   23  C   UNL     1      -0.271   5.759  26.813  0.00  0.00     0.187 C 
HETATM   24  O   UNL     1       1.051   5.533  27.334  0.00  0.00    -0.388 OA
HETATM   25  C   UNL     1       1.841   6.728  27.209  0.00  0.00     0.187 C 
HETATM   26  C   UNL     1       1.221   7.906  27.978  0.00  0.00     0.149 C 
ENDBRANCH  18  21
ENDBRANCH  13  15
ENDBRANCH   8  11
BRANCH   9  27
HETATM   27  O   UNL     1      -5.103  13.221  22.301  0.00  0.00    -0.360 OA
HETATM   28  H   UNL     1      -5.903  13.738  22.510  0.00  0.00     0.217 HD
ENDBRANCH   9  27
BRANCH   1  29
HETATM   29  C   UNL     1       0.341  16.728  20.495  0.00  0.00     0.066 C 
BRANCH  29  30
HETATM   30  C   UNL     1       1.115  15.890  21.530  0.00  0.00    -0.009 C 
HETATM   31  C   UNL     1       2.344  16.653  22.062  0.00  0.00     0.005 C 
HETATM   32  C   UNL     1       3.373  15.573  22.355  0.00  0.00     0.000 C 
HETATM   33  C   UNL     1       3.180  14.602  21.204  0.00  0.00     0.000 C 
HETATM   34  C   UNL     1       1.669  14.549  21.007  0.00  0.00     0.005 C 
ENDBRANCH  29  30
ENDBRANCH   1  29
TORSDOF 6
ENDMDL
MODEL 4
REMARK VINA RESULT:    -8.578      1.772      2.387
REMARK INTER + INTRA:         -12.291
REMARK INTER:                 -11.367
REMARK INTRA:                  -0.925
REMARK UNBOUND:                -0.955
REMARK  6 active torsions:
REMARK  status: ('A' for Active; 'I' for Inactive)
REMARK    1  A    between atoms: C_5  and  C_6 
REMARK    2  A    between atoms: C_6  and  C_7 
REMARK    3  A    between atoms: C_14  and  C_18 
REMARK    4  A    between atoms: C_15  and  O_17 
REMARK       I    between atoms: C_18  and  N_20 
REMARK    5  A    between atoms: N_20  and  C_22 
REMARK    6  A    between atoms: C_25  and  N_28 
ROOT
HETATM    1  C   UNL     1      -2.251  16.511  20.557  0.00  0.00     0.067 A 
HETATM    2  N   UNL     1      -3.312  16.934  19.845  0.00  0.00    -0.178 NA
HETATM    3  N   UNL     1      -4.339  16.226  20.339  0.00  0.00    -0.277 N 
HETATM    4  H   UNL     1      -5.254  16.359  19.925  0.00  0.00     0.189 HD
HETATM    5  C   UNL     1      -2.635  15.565  21.551  0.00  0.00     0.019 A 
HETATM    6  C   UNL     1      -3.985  15.344  21.324  0.00  0.00     0.065 A 
HETATM    7  C   UNL     1      -1.999  14.821  22.565  0.00  0.00     0.035 C 
HETATM    8  C   UNL     1      -2.679  13.764  23.225  0.00  0.00     0.066 C 
HETATM    9  C   UNL     1      -4.007  13.513  22.861  0.00  0.00     0.083 C 
HETATM   10  C   UNL     1      -4.716  14.353  21.988  0.00  0.00     0.069 C 
ENDROOT
BRANCH   8  11
HETATM   11  C   UNL     1      -1.802  12.903  24.089  0.00  0.00     0.260 C 
HETATM   12  O   UNL     1      -1.491  13.460  25.149  0.00  0.00    -0.267 OA
HETATM   13  N   UNL     1      -1.340  11.606  23.745  0.00  0.00    -0.318 N 
HETATM   14  C   UNL     1      -1.546  10.973  22.443  0.00  0.00     0.159 C 
BRANCH  13  15
HETATM   15  C   UNL     1      -0.568  10.838  24.713  0.00  0.00     0.037 A 
HETATM   16  C   UNL     1       0.818  10.712  24.600  0.00  0.00     0.032 A 
HETATM   17  C   UNL     1       1.562   9.908  25.477  0.00  0.00     0.031 A 
HETATM   18  C   UNL     1       0.973   9.190  26.520  0.00  0.00     0.030 A 
HETATM   19  C   UNL     1      -0.401   9.390  26.694  0.00  0.00     0.031 A 
HETATM   20  C   UNL     1      -1.159  10.198  25.812  0.00  0.00     0.032 A 
BRANCH  18  21
HETATM   21  N   UNL     1       1.726   8.335  27.300  0.00  0.00    -0.377 N 
HETATM   22  C   UNL     1       3.109   7.931  27.012  0.00  0.00     0.149 C 
HETATM   23  C   UNL     1       4.033   8.320  28.176  0.00  0.00     0.187 C 
HETATM   24  O   UNL     1       3.566   7.783  29.426  0.00  0.00    -0.388 OA
HETATM   25  C   UNL     1       2.247   8.278  29.712  0.00  0.00     0.187 C 
HETATM   26  C   UNL     1       1.240   7.885  28.620  0.00  0.00     0.149 C 
ENDBRANCH  18  21
ENDBRANCH  13  15
ENDBRANCH   8  11
BRANCH   9  27
HETATM   27  O   UNL     1      -4.697  12.387  23.225  0.00  0.00    -0.360 OA
HETATM   28  H   UNL     1      -4.504  11.709  22.551  0.00  0.00     0.217 HD
ENDBRANCH   9  27
BRANCH   1  29
HETATM   29  C   UNL     1      -0.890  17.029  20.198  0.00  0.00     0.066 C 
BRANCH  29  30
HETATM   30  C   UNL     1       0.276  16.414  20.993  0.00  0.00    -0.009 C 
HETATM   31  C   UNL     1       0.699  17.324  22.163  0.00  0.00     0.005 C 
HETATM   32  C   UNL     1       2.194  17.094  22.312  0.00  0.00     0.000 C 
HETATM   33  C   UNL     1       2.663  16.979  20.873  0.00  0.00     0.000 C 
HETATM   34  C   UNL     1       1.567  16.173  20.184  0.00  0.00     0.005 C 
ENDBRANCH  29  30
ENDBRANCH   1  29
TORSDOF 6
ENDMDL
MODEL 5
REMARK VINA RESULT:    -8.478      1.285      2.071
REMARK INTER + INTRA:         -12.159
REMARK INTER:                 -11.568
REMARK INTRA:                  -0.590
REMARK UNBOUND:                -0.955
REMARK  6 active torsions:
REMARK  status: ('A' for Active; 'I' for Inactive)
REMARK    1  A    between atoms: C_5  and  C_6 
REMARK    2  A    between atoms: C_6  and  C_7 
REMARK    3  A    between atoms: C_14  and  C_18 
REMARK    4  A    between atoms: C_15  and  O_17 
REMARK       I    between atoms: C_18  and  N_20 
REMARK    5  A    between atoms: N_20  and  C_22 
REMARK    6  A    between atoms: C_25  and  N_28 
ROOT
HETATM    1  C   UNL     1      -0.008  16.823  20.704  0.00  0.00     0.067 A 
HETATM    2  N   UNL     1      -0.544  17.747  19.885  0.00  0.00    -0.178 NA
HETATM    3  N   UNL     1      -1.775  17.280  19.628  0.00  0.00    -0.277 N 
HETATM    4  H   UNL     1      -2.364  17.808  18.995  0.00  0.00     0.189 HD
HETATM    5  C   UNL     1      -0.944  15.792  21.007  0.00  0.00     0.019 A 
HETATM    6  C   UNL     1      -2.052  16.080  20.225  0.00  0.00     0.065 A 
HETATM    7  C   UNL     1      -0.967  14.620  21.790  0.00  0.00     0.035 C 
HETATM    8  C   UNL     1      -2.024  13.680  21.659  0.00  0.00     0.066 C 
HETATM    9  C   UNL     1      -3.054  13.975  20.759  0.00  0.00     0.083 C 
HETATM   10  C   UNL     1      -3.145  15.215  20.106  0.00  0.00     0.069 C 
ENDROOT
BRANCH   8  11
HETATM   11  C   UNL     1      -1.784  12.373  22.359  0.00  0.00     0.260 C 
HETATM   12  O   UNL     1      -2.302  11.418  21.767  0.00  0.00    -0.267 OA
HETATM   13  N   UNL     1      -1.073  12.219  23.578  0.00  0.00    -0.318 N 
HETATM   14  C   UNL     1      -0.583  13.328  24.395  0.00  0.00     0.159 C 
BRANCH  13  15
HETATM   15  C   UNL     1      -0.832  10.883  24.105  0.00  0.00     0.037 A 
HETATM   16  C   UNL     1       0.029   9.992  23.460  0.00  0.00     0.032 A 
HETATM   17  C   UNL     1       0.206   8.675  23.910  0.00  0.00     0.031 A 
HETATM   18  C   UNL     1      -0.457   8.169  25.029  0.00  0.00     0.030 A 
HETATM   19  C   UNL     1      -1.246   9.086  25.733  0.00  0.00     0.031 A 
HETATM   20  C   UNL     1      -1.431  10.416  25.284  0.00  0.00     0.032 A 
BRANCH  18  21
HETATM   21  N   UNL     1      -0.330   6.840  25.383  0.00  0.00    -0.377 N 
HETATM   22  C   UNL     1       0.165   5.778  24.496  0.00  0.00     0.149 C 
HETATM   23  C   UNL     1       1.400   5.102  25.111  0.00  0.00     0.187 C 
HETATM   24  O   UNL     1       1.132   4.614  26.438  0.00  0.00    -0.388 OA
HETATM   25  C   UNL     1       0.741   5.701  27.293  0.00  0.00     0.187 C 
HETATM   26  C   UNL     1      -0.527   6.404  26.779  0.00  0.00     0.149 C 
ENDBRANCH  18  21
ENDBRANCH  13  15
ENDBRANCH   8  11
BRANCH   9  27
HETATM   27  O   UNL     1      -3.992  13.066  20.349  0.00  0.00    -0.360 OA
HETATM   28  H   UNL     1      -4.732  13.120  20.982  0.00  0.00     0.217 HD
ENDBRANCH   9  27
BRANCH   1  29
HETATM   29  C   UNL     1       1.425  16.974  21.121  0.00  0.00     0.066 C 
BRANCH  29  30
HETATM   30  C   UNL     1       2.261  15.681  21.073  0.00  0.00    -0.009 C 
HETATM   31  C   UNL     1       2.668  15.225  22.488  0.00  0.00     0.005 C 
HETATM   32  C   UNL     1       4.021  14.556  22.304  0.00  0.00     0.000 C 
HETATM   33  C   UNL     1       4.696  15.440  21.271  0.00  0.00     0.000 C 
HETATM   34  C   UNL     1       3.584  15.785  20.287  0.00  0.00     0.005 C 
ENDBRANCH  29  30
ENDBRANCH   1  29
TORSDOF 6
ENDMDL
MODEL 6
REMARK VINA RESULT:    -8.448      1.861      2.529
REMARK INTER + INTRA:         -12.119
REMARK INTER:                 -10.822
REMARK INTRA:                  -1.297
REMARK UNBOUND:                -0.955
REMARK  6 active torsions:
REMARK  status: ('A' for Active; 'I' for Inactive)
REMARK    1  A    between atoms: C_5  and  C_6 
REMARK    2  A    between atoms: C_6  and  C_7 
REMARK    3  A    between atoms: C_14  and  C_18 
REMARK    4  A    between atoms: C_15  and  O_17 
REMARK       I    between atoms: C_18  and  N_20 
REMARK    5  A    between atoms: N_20  and  C_22 
REMARK    6  A    between atoms: C_25  and  N_28 
ROOT
HETATM    1  C   UNL     1      -0.800  16.378  21.576  0.00  0.00     0.067 A 
HETATM    2  N   UNL     1      -1.437  16.959  20.543  0.00  0.00    -0.178 NA
HETATM    3  N   UNL     1      -2.300  16.020  20.123  0.00  0.00    -0.277 N 
HETATM    4  H   UNL     1      -2.878  16.229  19.318  0.00  0.00     0.189 HD
HETATM    5  C   UNL     1      -1.316  15.075  21.840  0.00  0.00     0.019 A 
HETATM    6  C   UNL     1      -2.231  14.847  20.824  0.00  0.00     0.065 A 
HETATM    7  C   UNL     1      -1.075  14.041  22.766  0.00  0.00     0.035 C 
HETATM    8  C   UNL     1      -1.631  12.748  22.571  0.00  0.00     0.066 C 
HETATM    9  C   UNL     1      -2.452  12.551  21.455  0.00  0.00     0.083 C 
HETATM   10  C   UNL     1      -2.851  13.609  20.623  0.00  0.00     0.069 C 
ENDROOT
BRANCH   8  11
HETATM   11  C   UNL     1      -1.084  11.691  23.488  0.00  0.00     0.260 C 
HETATM   12  O   UNL     1       0.137  11.542  23.360  0.00  0.00    -0.267 OA
HETATM   13  N   UNL     1      -1.858  10.913  24.389  0.00  0.00    -0.318 N 
HETATM   14  C   UNL     1      -3.318  10.939  24.460  0.00  0.00     0.159 C 
BRANCH  13  15
HETATM   15  C   UNL     1      -1.190   9.983  25.289  0.00  0.00     0.037 A 
HETATM   16  C   UNL     1      -1.131  10.220  26.665  0.00  0.00     0.032 A 
HETATM   17  C   UNL     1      -0.421   9.377  27.532  0.00  0.00     0.031 A 
HETATM   18  C   UNL     1       0.266   8.246  27.084  0.00  0.00     0.030 A 
HETATM   19  C   UNL     1       0.129   7.952  25.722  0.00  0.00     0.031 A 
HETATM   20  C   UNL     1      -0.585   8.801  24.841  0.00  0.00     0.032 A 
BRANCH  18  21
HETATM   21  N   UNL     1       1.032   7.496  27.955  0.00  0.00    -0.377 N 
HETATM   22  C   UNL     1       2.324   7.917  28.514  0.00  0.00     0.149 C 
HETATM   23  C   UNL     1       2.261   7.938  30.049  0.00  0.00     0.187 C 
HETATM   24  O   UNL     1       1.833   6.671  30.579  0.00  0.00    -0.388 OA
HETATM   25  C   UNL     1       0.526   6.344  30.078  0.00  0.00     0.187 C 
HETATM   26  C   UNL     1       0.509   6.248  28.544  0.00  0.00     0.149 C 
ENDBRANCH  18  21
ENDBRANCH  13  15
ENDBRANCH   8  11
BRANCH   9  27
HETATM   27  O   UNL     1      -2.848  11.319  21.009  0.00  0.00    -0.360 OA
HETATM   28  H   UNL     1      -2.502  10.665  21.644  0.00  0.00     0.217 HD
ENDBRANCH   9  27
BRANCH   1  29
HETATM   29  C   UNL     1       0.325  17.118  22.237  0.00  0.00     0.066 C 
BRANCH  29  30
HETATM   30  C   UNL     1       1.734  16.577  21.931  0.00  0.00    -0.009 C 
HETATM   31  C   UNL     1       1.776  15.861  20.567  0.00  0.00     0.005 C 
HETATM   32  C   UNL     1       2.814  14.764  20.736  0.00  0.00     0.000 C 
HETATM   33  C   UNL     1       2.559  14.275  22.151  0.00  0.00     0.000 C 
HETATM   34  C   UNL     1       2.275  15.546  22.943  0.00  0.00     0.005 C 
ENDBRANCH  29  30
ENDBRANCH   1  29
TORSDOF 6
ENDMDL
MODEL 7
REMARK VINA RESULT:    -8.408      2.722      4.558
REMARK INTER + INTRA:         -12.067
REMARK INTER:                 -11.133
REMARK INTRA:                  -0.933
REMARK UNBOUND:                -0.955
REMARK  6 active torsions:
REMARK  status: ('A' for Active; 'I' for Inactive)
REMARK    1  A    between atoms: C_5  and  C_6 
REMARK    2  A    between atoms: C_6  and  C_7 
REMARK    3  A    between atoms: C_14  and  C_18 
REMARK    4  A    between atoms: C_15  and  O_17 
REMARK       I    between atoms: C_18  and  N_20 
REMARK    5  A    between atoms: N_20  and  C_22 
REMARK    6  A    between atoms: C_25  and  N_28 
ROOT
HETATM    1  C   UNL     1       0.340  17.139  20.533  0.00  0.00     0.067 A 
HETATM    2  N   UNL     1       1.101  18.040  19.885  0.00  0.00    -0.178 NA
HETATM    3  N   UNL     1       2.356  17.606  20.079  0.00  0.00    -0.277 N 
HETATM    4  H   UNL     1       3.116  18.156  19.698  0.00  0.00     0.189 HD
HETATM    5  C   UNL     1       1.131  16.093  21.090  0.00  0.00     0.019 A 
HETATM    6  C   UNL     1       2.442  16.475  20.845  0.00  0.00     0.065 A 
HETATM    7  C   UNL     1       0.907  14.913  21.827  0.00  0.00     0.035 C 
HETATM    8  C   UNL     1       1.987  14.222  22.437  0.00  0.00     0.066 C 
HETATM    9  C   UNL     1       3.278  14.730  22.250  0.00  0.00     0.083 C 
HETATM   10  C   UNL     1       3.543  15.795  21.375  0.00  0.00     0.069 C 
ENDROOT
BRANCH   8  11
HETATM   11  C   UNL     1       1.573  13.140  23.394  0.00  0.00     0.260 C 
HETATM   12  O   UNL     1       2.128  13.246  24.494  0.00  0.00    -0.267 OA
HETATM   13  N   UNL     1       0.672  12.086  23.092  0.00  0.00    -0.318 N 
HETATM   14  C   UNL     1       0.117  11.828  21.764  0.00  0.00     0.159 C 
BRANCH  13  15
HETATM   15  C   UNL     1       0.282  11.153  24.140  0.00  0.00     0.037 A 
HETATM   16  C   UNL     1      -0.693  11.486  25.083  0.00  0.00     0.032 A 
HETATM   17  C   UNL     1      -1.018  10.629  26.146  0.00  0.00     0.031 A 
HETATM   18  C   UNL     1      -0.399   9.392  26.329  0.00  0.00     0.030 A 
HETATM   19  C   UNL     1       0.509   9.014  25.333  0.00  0.00     0.031 A 
HETATM   20  C   UNL     1       0.844   9.873  24.258  0.00  0.00     0.032 A 
BRANCH  18  21
HETATM   21  N   UNL     1      -0.678   8.622  27.441  0.00  0.00    -0.377 N 
HETATM   22  C   UNL     1      -0.723   7.154  27.458  0.00  0.00     0.149 C 
HETATM   23  C   UNL     1       0.290   6.599  28.472  0.00  0.00     0.187 C 
HETATM   24  O   UNL     1       0.088   7.158  29.782  0.00  0.00    -0.388 OA
HETATM   25  C   UNL     1       0.233   8.588  29.735  0.00  0.00     0.187 C 
HETATM   26  C   UNL     1      -0.784   9.234  28.780  0.00  0.00     0.149 C 
ENDBRANCH  18  21
ENDBRANCH  13  15
ENDBRANCH   8  11
BRANCH   9  27
HETATM   27  O   UNL     1       4.369  14.323  22.970  0.00  0.00    -0.360 OA
HETATM   28  H   UNL     1       5.066  14.988  22.825  0.00  0.00     0.217 HD
ENDBRANCH   9  27
BRANCH   1  29
HETATM   29  C   UNL     1      -1.140  17.371  20.611  0.00  0.00     0.066 C 
BRANCH  29  30
HETATM   30  C   UNL     1      -2.014  16.159  20.237  0.00  0.00    -0.009 C 
HETATM   31  C   UNL     1      -3.270  16.592  19.456  0.00  0.00     0.005 C 
HETATM   32  C   UNL     1      -4.339  15.587  19.852  0.00  0.00     0.000 C 
HETATM   33  C   UNL     1      -4.066  15.371  21.330  0.00  0.00     0.000 C 
HETATM   34  C   UNL     1      -2.545  15.340  21.432  0.00  0.00     0.005 C 
ENDBRANCH  29  30
ENDBRANCH   1  29
TORSDOF 6
ENDMDL
MODEL 8
REMARK VINA RESULT:    -8.201      3.028      4.586
REMARK INTER + INTRA:         -11.793
REMARK INTER:                 -10.838
REMARK INTRA:                  -0.955
REMARK UNBOUND:                -0.955
REMARK  6 active torsions:
REMARK  status: ('A' for Active; 'I' for Inactive)
REMARK    1  A    between atoms: C_5  and  C_6 
REMARK    2  A    between atoms: C_6  and  C_7 
REMARK    3  A    between atoms: C_14  and  C_18 
REMARK    4  A    between atoms: C_15  and  O_17 
REMARK       I    between atoms: C_18  and  N_20 
REMARK    5  A    between atoms: N_20  and  C_22 
REMARK    6  A    between atoms: C_25  and  N_28 
ROOT
HETATM    1  C   UNL     1      -3.701  13.629  22.258  0.00  0.00     0.067 A 
HETATM    2  N   UNL     1      -4.706  14.447  22.620  0.00  0.00    -0.178 NA
HETATM    3  N   UNL     1      -4.719  14.376  23.960  0.00  0.00    -0.277 N 
HETATM    4  H   UNL     1      -5.429  14.898  24.460  0.00  0.00     0.189 HD
HETATM    5  C   UNL     1      -3.038  13.084  23.397  0.00  0.00     0.019 A 
HETATM    6  C   UNL     1      -3.780  13.527  24.481  0.00  0.00     0.065 A 
HETATM    7  C   UNL     1      -1.951  12.221  23.640  0.00  0.00     0.035 C 
HETATM    8  C   UNL     1      -1.720  11.693  24.938  0.00  0.00     0.066 C 
HETATM    9  C   UNL     1      -2.582  12.087  25.968  0.00  0.00     0.083 C 
HETATM   10  C   UNL     1      -3.557  13.081  25.788  0.00  0.00     0.069 C 
ENDROOT
BRANCH   8  11
HETATM   11  C   UNL     1      -0.693  10.598  24.990  0.00  0.00     0.260 C 
HETATM   12  O   UNL     1      -1.173   9.518  25.358  0.00  0.00    -0.267 OA
HETATM   13  N   UNL     1       0.684  10.756  24.686  0.00  0.00    -0.318 N 
HETATM   14  C   UNL     1       1.326  12.039  24.405  0.00  0.00     0.159 C 
BRANCH  13  15
HETATM   15  C   UNL     1       1.558   9.591  24.687  0.00  0.00     0.037 A 
HETATM   16  C   UNL     1       2.526   9.410  25.677  0.00  0.00     0.032 A 
HETATM   17  C   UNL     1       3.429   8.336  25.643  0.00  0.00     0.031 A 
HETATM   18  C   UNL     1       3.417   7.378  24.627  0.00  0.00     0.030 A 
HETATM   19  C   UNL     1       2.389   7.502  23.687  0.00  0.00     0.031 A 
HETATM   20  C   UNL     1       1.475   8.585  23.714  0.00  0.00     0.032 A 
BRANCH  18  21
HETATM   21  N   UNL     1       4.383   6.392  24.578  0.00  0.00    -0.377 N 
HETATM   22  C   UNL     1       4.112   4.948  24.583  0.00  0.00     0.149 C 
HETATM   23  C   UNL     1       4.693   4.290  23.322  0.00  0.00     0.187 C 
HETATM   24  O   UNL     1       6.096   4.573  23.175  0.00  0.00    -0.388 OA
HETATM   25  C   UNL     1       6.305   5.992  23.081  0.00  0.00     0.187 C 
HETATM   26  C   UNL     1       5.799   6.729  24.332  0.00  0.00     0.149 C 
ENDBRANCH  18  21
ENDBRANCH  13  15
ENDBRANCH   8  11
BRANCH   9  27
HETATM   27  O   UNL     1      -2.636  11.477  27.192  0.00  0.00    -0.360 OA
HETATM   28  H   UNL     1      -2.985  12.136  27.820  0.00  0.00     0.217 HD
ENDBRANCH   9  27
BRANCH   1  29
HETATM   29  C   UNL     1      -3.460  13.385  20.798  0.00  0.00     0.066 C 
BRANCH  29  30
HETATM   30  C   UNL     1      -2.918  14.594  20.012  0.00  0.00    -0.009 C 
HETATM   31  C   UNL     1      -2.012  15.475  20.894  0.00  0.00     0.005 C 
HETATM   32  C   UNL     1      -2.220  16.888  20.372  0.00  0.00     0.000 C 
HETATM   33  C   UNL     1      -3.707  16.919  20.067  0.00  0.00     0.000 C 
HETATM   34  C   UNL     1      -3.993  15.551  19.457  0.00  0.00     0.005 C 
ENDBRANCH  29  30
ENDBRANCH   1  29
TORSDOF 6
ENDMDL
MODEL 9
REMARK VINA RESULT:    -8.106      1.901      2.776
REMARK INTER + INTRA:         -11.667
REMARK INTER:                 -10.086
REMARK INTRA:                  -1.581
REMARK UNBOUND:                -0.955
REMARK  6 active torsions:
REMARK  status: ('A' for Active; 'I' for Inactive)
REMARK    1  A    between atoms: C_5  and  C_6 
REMARK    2  A    between atoms: C_6  and  C_7 
REMARK    3  A    between atoms: C_14  and  C_18 
REMARK    4  A    between atoms: C_15  and  O_17 
REMARK       I    between atoms: C_18  and  N_20 
REMARK    5  A    between atoms: N_20  and  C_22 
REMARK    6  A    between atoms: C_25  and  N_28 
ROOT
HETATM    1  C   UNL     1      -0.664  16.326  21.844  0.00  0.00     0.067 A 
HETATM    2  N   UNL     1      -1.491  17.010  21.033  0.00  0.00    -0.178 NA
HETATM    3  N   UNL     1      -2.407  16.102  20.661  0.00  0.00    -0.277 N 
HETATM    4  H   UNL     1      -3.129  16.389  20.012  0.00  0.00     0.189 HD
HETATM    5  C   UNL     1      -1.106  14.984  22.027  0.00  0.00     0.019 A 
HETATM    6  C   UNL     1      -2.194  14.853  21.178  0.00  0.00     0.065 A 
HETATM    7  C   UNL     1      -0.682  13.850  22.749  0.00  0.00     0.035 C 
HETATM    8  C   UNL     1      -1.250  12.573  22.494  0.00  0.00     0.066 C 
HETATM    9  C   UNL     1      -2.265  12.489  21.533  0.00  0.00     0.083 C 
HETATM   10  C   UNL     1      -2.826  13.628  20.935  0.00  0.00     0.069 C 
ENDROOT
BRANCH   8  11
HETATM   11  C   UNL     1      -0.528  11.429  23.146  0.00  0.00     0.260 C 
HETATM   12  O   UNL     1       0.143  10.773  22.340  0.00  0.00    -0.267 OA
HETATM   13  N   UNL     1      -0.607  11.094  24.523  0.00  0.00    -0.318 N 
HETATM   14  C   UNL     1      -1.507  11.736  25.480  0.00  0.00     0.159 C 
BRANCH  13  15
HETATM   15  C   UNL     1       0.217  10.013  25.047  0.00  0.00     0.037 A 
HETATM   16  C   UNL     1       1.543  10.231  25.429  0.00  0.00     0.032 A 
HETATM   17  C   UNL     1       2.373   9.183  25.856  0.00  0.00     0.031 A 
HETATM   18  C   UNL     1       1.931   7.861  25.936  0.00  0.00     0.030 A 
HETATM   19  C   UNL     1       0.577   7.655  25.647  0.00  0.00     0.031 A 
HETATM   20  C   UNL     1      -0.265   8.707  25.213  0.00  0.00     0.032 A 
BRANCH  18  21
HETATM   21  N   UNL     1       2.805   6.845  26.269  0.00  0.00    -0.377 N 
HETATM   22  C   UNL     1       2.433   5.432  26.421  0.00  0.00     0.149 C 
HETATM   23  C   UNL     1       3.244   4.559  25.451  0.00  0.00     0.187 C 
HETATM   24  O   UNL     1       4.659   4.763  25.610  0.00  0.00    -0.388 OA
HETATM   25  C   UNL     1       4.989   6.140  25.361  0.00  0.00     0.187 C 
HETATM   26  C   UNL     1       4.260   7.086  26.329  0.00  0.00     0.149 C 
ENDBRANCH  18  21
ENDBRANCH  13  15
ENDBRANCH   8  11
BRANCH   9  27
HETATM   27  O   UNL     1      -2.724  11.309  21.011  0.00  0.00    -0.360 OA
HETATM   28  H   UNL     1      -2.842  10.697  21.760  0.00  0.00     0.217 HD
ENDBRANCH   9  27
BRANCH   1  29
HETATM   29  C   UNL     1       0.557  17.017  22.375  0.00  0.00     0.066 C 
BRANCH  29  30
HETATM   30  C   UNL     1       1.886  16.597  21.719  0.00  0.00    -0.009 C 
HETATM   31  C   UNL     1       1.670  16.130  20.266  0.00  0.00     0.005 C 
HETATM   32  C   UNL     1       2.730  15.064  20.040  0.00  0.00     0.000 C 
HETATM   33  C   UNL     1       2.755  14.328  21.368  0.00  0.00     0.000 C 
HETATM   34  C   UNL     1       2.619  15.430  22.412  0.00  0.00     0.005 C 
ENDBRANCH  29  30
ENDBRANCH   1  29
TORSDOF 6
ENDMDL
