REMARK  6 active torsions:
REMARK  status: ('A' for Active; 'I' for Inactive)
REMARK    1  A    between atoms: C_5  and  C_6 
REMARK    2  A    between atoms: C_6  and  C_7 
REMARK    3  A    between atoms: C_14  and  C_18 
REMARK    4  A    between atoms: C_15  and  O_17 
REMARK       I    between atoms: C_18  and  N_20 
REMARK    5  A    between atoms: N_20  and  C_22 
REMARK    6  A    between atoms: C_25  and  N_28 
ROOT
HETATM    1  C   UNL     1       0.805  -3.283  -1.117  0.00  0.00     0.067 A 
HETATM    2  N   UNL     1       1.706  -4.282  -1.096  0.00  0.00    -0.178 NA
HETATM    3  N   UNL     1       0.958  -5.394  -1.027  0.00  0.00    -0.277 N 
HETATM    4  H   UNL     1       1.433  -6.287  -0.969  0.00  0.00     0.189 HD
HETATM    5  C   UNL     1      -0.529  -3.785  -1.120  0.00  0.00     0.019 A 
HETATM    6  C   UNL     1      -0.389  -5.157  -0.978  0.00  0.00     0.065 A 
HETATM    7  C   UNL     1      -1.831  -3.247  -1.156  0.00  0.00     0.035 C 
HETATM    8  C   UNL     1      -2.962  -4.066  -0.894  0.00  0.00     0.066 C 
HETATM    9  C   UNL     1      -2.741  -5.424  -0.637  0.00  0.00     0.083 C 
HETATM   10  C   UNL     1      -1.475  -6.015  -0.774  0.00  0.00     0.069 C 
ENDROOT
BRANCH   8  11
HETATM   11  C   UNL     1      -4.248  -3.311  -0.714  0.00  0.00     0.260 C 
HETATM   12  O   UNL     1      -4.081  -2.221  -0.153  0.00  0.00    -0.267 OA
HETATM   13  N   UNL     1      -5.530  -3.779  -1.105  0.00  0.00    -0.318 N 
HETATM   14  C   UNL     1      -5.798  -5.120  -1.622  0.00  0.00     0.159 C 
BRANCH  13  15
HETATM   15  C   UNL     1      -6.688  -2.908  -0.957  0.00  0.00     0.037 A 
HETATM   16  C   UNL     1      -6.570  -1.520  -1.057  0.00  0.00     0.032 A 
HETATM   17  C   UNL     1      -7.661  -0.666  -0.834  0.00  0.00     0.031 A 
HETATM   18  C   UNL     1      -8.932  -1.142  -0.506  0.00  0.00     0.030 A 
HETATM   19  C   UNL     1      -9.076  -2.534  -0.499  0.00  0.00     0.031 A 
HETATM   20  C   UNL     1      -7.979  -3.402  -0.721  0.00  0.00     0.032 A 
BRANCH  18  21
HETATM   21  N   UNL     1      -9.955  -0.266  -0.200  0.00  0.00    -0.377 N 
HETATM   22  C   UNL     1     -11.384  -0.537  -0.407  0.00  0.00     0.149 C 
HETATM   23  C   UNL     1     -12.145  -0.438   0.924  0.00  0.00     0.187 C 
HETATM   24  O   UNL     1     -11.926   0.830   1.567  0.00  0.00    -0.388 OA
HETATM   25  C   UNL     1     -10.525   1.011   1.834  0.00  0.00     0.187 C 
HETATM   26  C   UNL     1      -9.689   0.981   0.544  0.00  0.00     0.149 C 
ENDBRANCH  18  21
ENDBRANCH  13  15
ENDBRANCH   8  11
BRANCH   9  27
HETATM   27  O   UNL     1      -3.692  -6.268  -0.130  0.00  0.00    -0.360 OA
HETATM   28  H   UNL     1      -4.208  -5.754   0.518  0.00  0.00     0.217 HD
ENDBRANCH   9  27
BRANCH   1  29
HETATM   29  C   UNL     1       1.299  -1.867  -1.091  0.00  0.00     0.066 C 
BRANCH  29  30
HETATM   30  C   UNL     1       0.835  -1.033   0.118  0.00  0.00    -0.009 C 
HETATM   31  C   UNL     1       1.440   0.384   0.087  0.00  0.00     0.005 C 
HETATM   32  C   UNL     1       1.612   0.764   1.549  0.00  0.00     0.000 C 
HETATM   33  C   UNL     1       2.066  -0.538   2.184  0.00  0.00     0.000 C 
HETATM   34  C   UNL     1       1.222  -1.606   1.497  0.00  0.00     0.005 C 
ENDBRANCH  29  30
ENDBRANCH   1  29
TORSDOF 6
