REMARK  6 active torsions:
REMARK  status: ('A' for Active; 'I' for Inactive)
REMARK    1  A    between atoms: N_6  and  C_7 
REMARK    2  A    between atoms: C_12  and  N_13 
REMARK       I    between atoms: N_13  and  C_15 
REMARK    3  A    between atoms: C_15  and  C_17 
REMARK    4  A    between atoms: C_18  and  O_20 
REMARK    5  A    between atoms: C_24  and  C_28 
REMARK       I    between atoms: C_28  and  N_30 
REMARK    6  A    between atoms: C_32  and  O_33 
ROOT
HETATM    1  C   UNL     1       8.422  -1.291   4.028  0.00  0.00     0.066 C 
HETATM    2  C   UNL     1       9.193  -2.471   3.963  0.00  0.00     0.083 C 
HETATM    3  C   UNL     1      10.553  -2.500   4.309  0.00  0.00     0.069 C 
HETATM    4  C   UNL     1       9.043  -0.126   4.521  0.00  0.00     0.036 C 
HETATM    5  C   UNL     1      10.445  -0.093   4.726  0.00  0.00     0.029 C 
HETATM    6  C   UNL     1      11.145  -1.290   4.657  0.00  0.00     0.065 C 
HETATM    7  C   UNL     1      11.450   0.914   4.919  0.00  0.00     0.157 C 
HETATM    8  N   UNL     1      12.654   0.340   5.145  0.00  0.00    -0.168 NA
HETATM    9  N   UNL     1      12.432  -0.971   4.996  0.00  0.00    -0.277 N 
HETATM   10  H   UNL     1      13.215  -1.606   5.102  0.00  0.00     0.189 HD
ENDROOT
BRANCH   1  11
HETATM   11  C   UNL     1       6.978  -1.339   3.553  0.00  0.00     0.260 C 
HETATM   12  N   UNL     1       6.382  -0.246   2.867  0.00  0.00    -0.318 N 
HETATM   13  C   UNL     1       7.167   0.950   2.547  0.00  0.00     0.159 C 
HETATM   14  O   UNL     1       6.428  -2.426   3.760  0.00  0.00    -0.267 OA
BRANCH  12  15
HETATM   15  C   UNL     1       5.024  -0.278   2.320  0.00  0.00     0.037 A 
HETATM   16  C   UNL     1       4.434   0.886   1.802  0.00  0.00     0.032 A 
HETATM   17  C   UNL     1       3.213   0.876   1.103  0.00  0.00     0.031 A 
HETATM   18  C   UNL     1       2.468  -0.289   0.912  0.00  0.00     0.030 A 
HETATM   19  C   UNL     1       2.993  -1.430   1.529  0.00  0.00     0.031 A 
HETATM   20  C   UNL     1       4.239  -1.430   2.213  0.00  0.00     0.032 A 
BRANCH  18  21
HETATM   21  N   UNL     1       1.298  -0.277   0.182  0.00  0.00    -0.377 N 
HETATM   22  C   UNL     1       0.219  -1.267   0.330  0.00  0.00     0.149 C 
HETATM   23  C   UNL     1       0.013  -2.033  -0.988  0.00  0.00     0.187 C 
HETATM   24  O   UNL     1      -0.234  -1.139  -2.087  0.00  0.00    -0.388 OA
HETATM   25  C   UNL     1       0.873  -0.237  -2.252  0.00  0.00     0.187 C 
HETATM   26  C   UNL     1       1.113   0.608  -0.987  0.00  0.00     0.149 C 
ENDBRANCH  18  21
ENDBRANCH  12  15
ENDBRANCH   1  11
BRANCH   2  27
HETATM   27  O   UNL     1       8.685  -3.677   3.549  0.00  0.00    -0.360 OA
HETATM   28  H   UNL     1       7.706  -3.594   3.522  0.00  0.00     0.217 HD
ENDBRANCH   2  27
BRANCH   7  29
HETATM   29  C   UNL     1      11.254   2.384   4.852  0.00  0.00     0.275 C 
HETATM   30  O   UNL     1      10.178   2.873   5.201  0.00  0.00    -0.266 OA
HETATM   31  N   UNL     1      12.289   3.204   4.328  0.00  0.00    -0.344 N 
HETATM   32  C   UNL     1      12.016   4.644   4.270  0.00  0.00     0.158 C 
HETATM   33  C   UNL     1      13.227   2.717   3.314  0.00  0.00     0.126 C 
HETATM   34  C   UNL     1      13.273   5.538   4.147  0.00  0.00     0.139 C 
HETATM   35  C   UNL     1      14.235   5.006   3.081  0.00  0.00     0.035 C 
HETATM   36  C   UNL     1      14.521   3.522   3.285  0.00  0.00     0.022 C 
BRANCH  34  37
HETATM   37  O   UNL     1      14.012   5.637   5.373  0.00  0.00    -0.389 OA
HETATM   38  C   UNL     1      13.351   6.393   6.379  0.00  0.00     0.202 C 
ENDBRANCH  34  37
ENDBRANCH   7  29
TORSDOF 6
