MODEL 1
REMARK VINA RESULT:   -10.058      0.000      0.000
REMARK INTER + INTRA:         -13.432
REMARK INTER:                 -12.199
REMARK INTRA:                  -1.234
REMARK UNBOUND:                -0.728
REMARK  5 active torsions:
REMARK  status: ('A' for Active; 'I' for Inactive)
REMARK    1  A    between atoms: C_7  and  N_8 
REMARK       I    between atoms: N_8  and  C_10 
REMARK    2  A    between atoms: C_10  and  C_12 
REMARK    3  A    between atoms: C_14  and  O_15 
REMARK    4  A    between atoms: C_22  and  C_23 
REMARK    5  A    between atoms: C_23  and  C_24 
ROOT
HETATM    1  C   UNL     1      -3.043  14.887  21.918  0.00  0.00     0.066 A 
HETATM    2  C   UNL     1      -1.860  15.586  22.294  0.00  0.00     0.035 A 
HETATM    3  C   UNL     1      -3.541  15.095  20.625  0.00  0.00     0.083 A 
HETATM    4  C   UNL     1      -2.867  15.884  19.681  0.00  0.00     0.069 A 
HETATM    5  C   UNL     1      -1.707  16.541  20.093  0.00  0.00     0.065 A 
HETATM    6  C   UNL     1      -1.174  16.411  21.368  0.00  0.00     0.020 A 
HETATM    7  N   UNL     1      -0.892  17.424  19.441  0.00  0.00    -0.277 N 
HETATM    8  H   UNL     1      -0.996  17.781  18.498  0.00  0.00     0.189 HD
HETATM    9  N   UNL     1       0.133  17.873  20.175  0.00  0.00    -0.178 NA
HETATM   10  C   UNL     1      -0.001  17.233  21.350  0.00  0.00     0.071 A 
ENDROOT
BRANCH   1  11
HETATM   11  C   UNL     1      -3.703  14.095  23.020  0.00  0.00     0.260 C 
HETATM   12  N   UNL     1      -3.366  12.750  23.339  0.00  0.00    -0.318 N 
HETATM   13  C   UNL     1      -2.511  11.929  22.480  0.00  0.00     0.159 C 
HETATM   14  O   UNL     1      -4.562  14.738  23.633  0.00  0.00    -0.267 OA
BRANCH  12  15
HETATM   15  C   UNL     1      -3.866  12.103  24.553  0.00  0.00     0.038 A 
HETATM   16  C   UNL     1      -4.912  11.165  24.510  0.00  0.00     0.053 A 
HETATM   17  C   UNL     1      -5.333  10.485  25.666  0.00  0.00     0.036 A 
HETATM   18 CL   UNL     1      -6.594   9.309  25.562  0.00  0.00    -0.084 Cl
HETATM   19  C   UNL     1      -4.737  10.727  26.897  0.00  0.00     0.024 A 
HETATM   20  C   UNL     1      -3.711  11.656  26.966  0.00  0.00     0.004 A 
HETATM   21  C   UNL     1      -3.279  12.330  25.809  0.00  0.00     0.030 A 
ENDBRANCH  12  15
ENDBRANCH   1  11
BRANCH   3  22
HETATM   22  O   UNL     1      -4.741  14.619  20.174  0.00  0.00    -0.360 OA
HETATM   23  H   UNL     1      -4.599  14.285  19.277  0.00  0.00     0.217 HD
ENDBRANCH   3  22
BRANCH  10  24
HETATM   24  C   UNL     1       0.980  17.512  22.441  0.00  0.00     0.100 C 
BRANCH  24  25
HETATM   25  C   UNL     1       1.892  16.310  22.580  0.00  0.00    -0.052 A 
HETATM   26  C   UNL     1       1.589  15.309  23.513  0.00  0.00     0.007 A 
HETATM   27  C   UNL     1       2.495  14.278  23.765  0.00  0.00     0.001 A 
HETATM   28  C   UNL     1       3.701  14.216  23.070  0.00  0.00     0.007 A 
HETATM   29  C   UNL     1       4.003  15.169  22.092  0.00  0.00    -0.061 A 
HETATM   30  C   UNL     1       3.093  16.212  21.851  0.00  0.00     0.014 A 
HETATM   31  C   UNL     1       5.259  15.044  21.280  0.00  0.00     0.048 C 
ENDBRANCH  24  25
ENDBRANCH  10  24
TORSDOF 5
ENDMDL
MODEL 2
REMARK VINA RESULT:    -9.782      1.006      1.324
REMARK INTER + INTRA:         -13.083
REMARK INTER:                 -11.861
REMARK INTRA:                  -1.223
REMARK UNBOUND:                -0.728
REMARK  5 active torsions:
REMARK  status: ('A' for Active; 'I' for Inactive)
REMARK    1  A    between atoms: C_7  and  N_8 
REMARK       I    between atoms: N_8  and  C_10 
REMARK    2  A    between atoms: C_10  and  C_12 
REMARK    3  A    between atoms: C_14  and  O_15 
REMARK    4  A    between atoms: C_22  and  C_23 
REMARK    5  A    between atoms: C_23  and  C_24 
ROOT
HETATM    1  C   UNL     1      -3.063  14.674  21.917  0.00  0.00     0.066 A 
HETATM    2  C   UNL     1      -1.910  15.419  22.299  0.00  0.00     0.035 A 
HETATM    3  C   UNL     1      -3.597  14.907  20.643  0.00  0.00     0.083 A 
HETATM    4  C   UNL     1      -2.985  15.767  19.719  0.00  0.00     0.069 A 
HETATM    5  C   UNL     1      -1.852  16.467  20.136  0.00  0.00     0.065 A 
HETATM    6  C   UNL     1      -1.287  16.315  21.395  0.00  0.00     0.020 A 
HETATM    7  N   UNL     1      -1.097  17.416  19.505  0.00  0.00    -0.277 N 
HETATM    8  H   UNL     1      -1.239  17.805  18.580  0.00  0.00     0.189 HD
HETATM    9  N   UNL     1      -0.082  17.889  20.238  0.00  0.00    -0.178 NA
HETATM   10  C   UNL     1      -0.158  17.197  21.388  0.00  0.00     0.071 A 
ENDROOT
BRANCH   1  11
HETATM   11  C   UNL     1      -3.658  13.806  22.997  0.00  0.00     0.260 C 
HETATM   12  N   UNL     1      -3.382  12.417  23.139  0.00  0.00    -0.318 N 
HETATM   13  C   UNL     1      -2.677  11.648  22.112  0.00  0.00     0.159 C 
HETATM   14  O   UNL     1      -4.404  14.426  23.764  0.00  0.00    -0.267 OA
BRANCH  12  15
HETATM   15  C   UNL     1      -3.797  11.672  24.328  0.00  0.00     0.038 A 
HETATM   16  C   UNL     1      -2.980  11.592  25.469  0.00  0.00     0.053 A 
HETATM   17  C   UNL     1      -3.416  10.946  26.639  0.00  0.00     0.036 A 
HETATM   18 CL   UNL     1      -2.398  10.907  28.032  0.00  0.00    -0.084 Cl
HETATM   19  C   UNL     1      -4.669  10.350  26.703  0.00  0.00     0.024 A 
HETATM   20  C   UNL     1      -5.489  10.405  25.586  0.00  0.00     0.004 A 
HETATM   21  C   UNL     1      -5.059  11.062  24.418  0.00  0.00     0.030 A 
ENDBRANCH  12  15
ENDBRANCH   1  11
BRANCH   3  22
HETATM   22  O   UNL     1      -4.781  14.387  20.196  0.00  0.00    -0.360 OA
HETATM   23  H   UNL     1      -4.581  13.536  19.779  0.00  0.00     0.217 HD
ENDBRANCH   3  22
BRANCH  10  24
HETATM   24  C   UNL     1       0.830  17.484  22.471  0.00  0.00     0.100 C 
BRANCH  24  25
HETATM   25  C   UNL     1       1.768  16.300  22.585  0.00  0.00    -0.052 A 
HETATM   26  C   UNL     1       1.475  15.260  23.478  0.00  0.00     0.007 A 
HETATM   27  C   UNL     1       2.402  14.243  23.710  0.00  0.00     0.001 A 
HETATM   28  C   UNL     1       3.620  14.234  23.034  0.00  0.00     0.007 A 
HETATM   29  C   UNL     1       3.915  15.229  22.095  0.00  0.00    -0.061 A 
HETATM   30  C   UNL     1       2.983  16.257  21.875  0.00  0.00     0.014 A 
HETATM   31  C   UNL     1       5.187  15.162  21.301  0.00  0.00     0.048 C 
ENDBRANCH  24  25
ENDBRANCH  10  24
TORSDOF 5
ENDMDL
MODEL 3
REMARK VINA RESULT:    -9.460      1.449      1.968
REMARK INTER + INTRA:         -12.676
REMARK INTER:                 -11.575
REMARK INTRA:                  -1.101
REMARK UNBOUND:                -0.728
REMARK  5 active torsions:
REMARK  status: ('A' for Active; 'I' for Inactive)
REMARK    1  A    between atoms: C_7  and  N_8 
REMARK       I    between atoms: N_8  and  C_10 
REMARK    2  A    between atoms: C_10  and  C_12 
REMARK    3  A    between atoms: C_14  and  O_15 
REMARK    4  A    between atoms: C_22  and  C_23 
REMARK    5  A    between atoms: C_23  and  C_24 
ROOT
HETATM    1  C   UNL     1      -3.229  14.486  22.166  0.00  0.00     0.066 A 
HETATM    2  C   UNL     1      -2.082  15.321  22.302  0.00  0.00     0.035 A 
HETATM    3  C   UNL     1      -3.981  14.598  20.989  0.00  0.00     0.083 A 
HETATM    4  C   UNL     1      -3.590  15.425  19.926  0.00  0.00     0.069 A 
HETATM    5  C   UNL     1      -2.454  16.217  20.103  0.00  0.00     0.065 A 
HETATM    6  C   UNL     1      -1.680  16.185  21.254  0.00  0.00     0.020 A 
HETATM    7  N   UNL     1      -1.881  17.161  19.298  0.00  0.00    -0.277 N 
HETATM    8  H   UNL     1      -2.200  17.475  18.389  0.00  0.00     0.189 HD
HETATM    9  N   UNL     1      -0.793  17.741  19.819  0.00  0.00    -0.178 NA
HETATM   10  C   UNL     1      -0.630  17.128  21.004  0.00  0.00     0.071 A 
ENDROOT
BRANCH   1  11
HETATM   11  C   UNL     1      -3.577  13.662  23.381  0.00  0.00     0.260 C 
HETATM   12  N   UNL     1      -3.215  12.296  23.542  0.00  0.00    -0.318 N 
HETATM   13  C   UNL     1      -2.673  11.493  22.445  0.00  0.00     0.159 C 
HETATM   14  O   UNL     1      -4.199  14.300  24.239  0.00  0.00    -0.267 OA
BRANCH  12  15
HETATM   15  C   UNL     1      -3.371  11.608  24.824  0.00  0.00     0.038 A 
HETATM   16  C   UNL     1      -2.274  11.040  25.494  0.00  0.00     0.053 A 
HETATM   17  C   UNL     1      -2.414  10.454  26.764  0.00  0.00     0.036 A 
HETATM   18 CL   UNL     1      -1.031   9.805  27.570  0.00  0.00    -0.084 Cl
HETATM   19  C   UNL     1      -3.649  10.404  27.397  0.00  0.00     0.024 A 
HETATM   20  C   UNL     1      -4.749  10.947  26.751  0.00  0.00     0.004 A 
HETATM   21  C   UNL     1      -4.609  11.546  25.486  0.00  0.00     0.030 A 
ENDBRANCH  12  15
ENDBRANCH   1  11
BRANCH   3  22
HETATM   22  O   UNL     1      -5.184  13.981  20.781  0.00  0.00    -0.360 OA
HETATM   23  H   UNL     1      -5.130  13.529  19.926  0.00  0.00     0.217 HD
ENDBRANCH   3  22
BRANCH  10  24
HETATM   24  C   UNL     1       0.500  17.546  21.885  0.00  0.00     0.100 C 
BRANCH  24  25
HETATM   25  C   UNL     1       1.518  16.425  21.917  0.00  0.00    -0.052 A 
HETATM   26  C   UNL     1       2.212  16.079  20.748  0.00  0.00     0.007 A 
HETATM   27  C   UNL     1       3.035  14.951  20.720  0.00  0.00     0.001 A 
HETATM   28  C   UNL     1       3.198  14.172  21.863  0.00  0.00     0.007 A 
HETATM   29  C   UNL     1       2.563  14.527  23.058  0.00  0.00    -0.061 A 
HETATM   30  C   UNL     1       1.727  15.655  23.077  0.00  0.00     0.014 A 
HETATM   31  C   UNL     1       2.818  13.739  24.309  0.00  0.00     0.048 C 
ENDBRANCH  24  25
ENDBRANCH  10  24
TORSDOF 5
ENDMDL
MODEL 4
REMARK VINA RESULT:    -9.236      2.850      3.492
REMARK INTER + INTRA:         -12.394
REMARK INTER:                 -11.446
REMARK INTRA:                  -0.948
REMARK UNBOUND:                -0.728
REMARK  5 active torsions:
REMARK  status: ('A' for Active; 'I' for Inactive)
REMARK    1  A    between atoms: C_7  and  N_8 
REMARK       I    between atoms: N_8  and  C_10 
REMARK    2  A    between atoms: C_10  and  C_12 
REMARK    3  A    between atoms: C_14  and  O_15 
REMARK    4  A    between atoms: C_22  and  C_23 
REMARK    5  A    between atoms: C_23  and  C_24 
ROOT
HETATM    1  C   UNL     1      -2.874  13.426  21.619  0.00  0.00     0.066 A 
HETATM    2  C   UNL     1      -1.969  14.374  21.061  0.00  0.00     0.035 A 
HETATM    3  C   UNL     1      -4.226  13.784  21.701  0.00  0.00     0.083 A 
HETATM    4  C   UNL     1      -4.716  14.988  21.173  0.00  0.00     0.069 A 
HETATM    5  C   UNL     1      -3.792  15.881  20.628  0.00  0.00     0.065 A 
HETATM    6  C   UNL     1      -2.433  15.610  20.546  0.00  0.00     0.020 A 
HETATM    7  N   UNL     1      -3.949  17.140  20.120  0.00  0.00    -0.277 N 
HETATM    8  H   UNL     1      -4.805  17.678  20.053  0.00  0.00     0.189 HD
HETATM    9  N   UNL     1      -2.812  17.711  19.702  0.00  0.00    -0.178 NA
HETATM   10  C   UNL     1      -1.875  16.772  19.919  0.00  0.00     0.071 A 
ENDROOT
BRANCH   1  11
HETATM   11  C   UNL     1      -2.237  12.181  22.186  0.00  0.00     0.260 C 
HETATM   12  N   UNL     1      -1.249  12.192  23.210  0.00  0.00    -0.318 N 
HETATM   13  C   UNL     1      -0.588  13.422  23.649  0.00  0.00     0.159 C 
HETATM   14  O   UNL     1      -2.672  11.140  21.681  0.00  0.00    -0.267 OA
BRANCH  12  15
HETATM   15  C   UNL     1      -0.832  10.963  23.884  0.00  0.00     0.038 A 
HETATM   16  C   UNL     1       0.197  10.153  23.369  0.00  0.00     0.053 A 
HETATM   17  C   UNL     1       0.652   9.019  24.062  0.00  0.00     0.036 A 
HETATM   18 CL   UNL     1       1.945   8.075  23.415  0.00  0.00    -0.084 Cl
HETATM   19  C   UNL     1       0.090   8.648  25.277  0.00  0.00     0.024 A 
HETATM   20  C   UNL     1      -0.933   9.424  25.800  0.00  0.00     0.004 A 
HETATM   21  C   UNL     1      -1.382  10.568  25.115  0.00  0.00     0.030 A 
ENDBRANCH  12  15
ENDBRANCH   1  11
BRANCH   3  22
HETATM   22  O   UNL     1      -5.182  13.049  22.347  0.00  0.00    -0.360 OA
HETATM   23  H   UNL     1      -5.348  12.260  21.811  0.00  0.00     0.217 HD
ENDBRANCH   3  22
BRANCH  10  24
HETATM   24  C   UNL     1      -0.453  17.078  19.581  0.00  0.00     0.100 C 
BRANCH  24  25
HETATM   25  C   UNL     1       0.421  16.592  20.719  0.00  0.00    -0.052 A 
HETATM   26  C   UNL     1       0.263  17.135  22.002  0.00  0.00     0.007 A 
HETATM   27  C   UNL     1       1.160  16.816  23.023  0.00  0.00     0.001 A 
HETATM   28  C   UNL     1       2.208  15.930  22.785  0.00  0.00     0.007 A 
HETATM   29  C   UNL     1       2.356  15.329  21.530  0.00  0.00    -0.061 A 
HETATM   30  C   UNL     1       1.458  15.664  20.503  0.00  0.00     0.014 A 
HETATM   31  C   UNL     1       3.429  14.304  21.307  0.00  0.00     0.048 C 
ENDBRANCH  24  25
ENDBRANCH  10  24
TORSDOF 5
ENDMDL
MODEL 5
REMARK VINA RESULT:    -8.994      3.067      3.626
REMARK INTER + INTRA:         -12.088
REMARK INTER:                 -11.059
REMARK INTRA:                  -1.030
REMARK UNBOUND:                -0.728
REMARK  5 active torsions:
REMARK  status: ('A' for Active; 'I' for Inactive)
REMARK    1  A    between atoms: C_7  and  N_8 
REMARK       I    between atoms: N_8  and  C_10 
REMARK    2  A    between atoms: C_10  and  C_12 
REMARK    3  A    between atoms: C_14  and  O_15 
REMARK    4  A    between atoms: C_22  and  C_23 
REMARK    5  A    between atoms: C_23  and  C_24 
ROOT
HETATM    1  C   UNL     1      -1.265  12.523  22.456  0.00  0.00     0.066 A 
HETATM    2  C   UNL     1      -0.714  13.835  22.529  0.00  0.00     0.035 A 
HETATM    3  C   UNL     1      -2.330  12.312  21.570  0.00  0.00     0.083 A 
HETATM    4  C   UNL     1      -2.795  13.313  20.705  0.00  0.00     0.069 A 
HETATM    5  C   UNL     1      -2.217  14.579  20.807  0.00  0.00     0.065 A 
HETATM    6  C   UNL     1      -1.183  14.872  21.686  0.00  0.00     0.020 A 
HETATM    7  N   UNL     1      -2.505  15.754  20.171  0.00  0.00    -0.277 N 
HETATM    8  H   UNL     1      -3.230  15.924  19.484  0.00  0.00     0.189 HD
HETATM    9  N   UNL     1      -1.741  16.786  20.549  0.00  0.00    -0.178 NA
HETATM   10  C   UNL     1      -0.897  16.256  21.451  0.00  0.00     0.071 A 
ENDROOT
BRANCH   1  11
HETATM   11  C   UNL     1      -0.714  11.534  23.453  0.00  0.00     0.260 C 
HETATM   12  N   UNL     1      -1.433  11.072  24.591  0.00  0.00    -0.318 N 
HETATM   13  C   UNL     1      -2.687  11.687  25.030  0.00  0.00     0.159 C 
HETATM   14  O   UNL     1       0.427  11.148  23.175  0.00  0.00    -0.267 OA
BRANCH  12  15
HETATM   15  C   UNL     1      -0.953   9.949  25.396  0.00  0.00     0.038 A 
HETATM   16  C   UNL     1      -0.895  10.020  26.799  0.00  0.00     0.053 A 
HETATM   17  C   UNL     1      -0.512   8.911  27.573  0.00  0.00     0.036 A 
HETATM   18 CL   UNL     1      -0.494   9.028  29.296  0.00  0.00    -0.084 Cl
HETATM   19  C   UNL     1      -0.163   7.706  26.976  0.00  0.00     0.024 A 
HETATM   20  C   UNL     1      -0.202   7.615  25.593  0.00  0.00     0.004 A 
HETATM   21  C   UNL     1      -0.596   8.720  24.816  0.00  0.00     0.030 A 
ENDBRANCH  12  15
ENDBRANCH   1  11
BRANCH   3  22
HETATM   22  O   UNL     1      -3.058  11.156  21.501  0.00  0.00    -0.360 OA
HETATM   23  H   UNL     1      -2.447  10.447  21.251  0.00  0.00     0.217 HD
ENDBRANCH   3  22
BRANCH  10  24
HETATM   24  C   UNL     1       0.105  17.144  22.112  0.00  0.00     0.100 C 
BRANCH  24  25
HETATM   25  C   UNL     1       1.489  16.685  21.703  0.00  0.00    -0.052 A 
HETATM   26  C   UNL     1       1.958  16.944  20.407  0.00  0.00     0.007 A 
HETATM   27  C   UNL     1       3.161  16.394  19.965  0.00  0.00     0.001 A 
HETATM   28  C   UNL     1       3.928  15.602  20.817  0.00  0.00     0.007 A 
HETATM   29  C   UNL     1       3.513  15.374  22.134  0.00  0.00    -0.061 A 
HETATM   30  C   UNL     1       2.294  15.919  22.570  0.00  0.00     0.014 A 
HETATM   31  C   UNL     1       4.388  14.600  23.075  0.00  0.00     0.048 C 
ENDBRANCH  24  25
ENDBRANCH  10  24
TORSDOF 5
ENDMDL
MODEL 6
REMARK VINA RESULT:    -8.864      4.001      8.215
REMARK INTER + INTRA:         -11.924
REMARK INTER:                 -11.112
REMARK INTRA:                  -0.812
REMARK UNBOUND:                -0.728
REMARK  5 active torsions:
REMARK  status: ('A' for Active; 'I' for Inactive)
REMARK    1  A    between atoms: C_7  and  N_8 
REMARK       I    between atoms: N_8  and  C_10 
REMARK    2  A    between atoms: C_10  and  C_12 
REMARK    3  A    between atoms: C_14  and  O_15 
REMARK    4  A    between atoms: C_22  and  C_23 
REMARK    5  A    between atoms: C_23  and  C_24 
ROOT
HETATM    1  C   UNL     1      -0.090  12.612  22.943  0.00  0.00     0.066 A 
HETATM    2  C   UNL     1      -1.300  13.365  22.955  0.00  0.00     0.035 A 
HETATM    3  C   UNL     1      -0.078  11.388  23.627  0.00  0.00     0.083 A 
HETATM    4  C   UNL     1      -1.226  10.855  24.230  0.00  0.00     0.069 A 
HETATM    5  C   UNL     1      -2.389  11.626  24.207  0.00  0.00     0.065 A 
HETATM    6  C   UNL     1      -2.467  12.862  23.581  0.00  0.00     0.020 A 
HETATM    7  N   UNL     1      -3.618  11.417  24.766  0.00  0.00    -0.277 N 
HETATM    8  H   UNL     1      -3.915  10.631  25.332  0.00  0.00     0.189 HD
HETATM    9  N   UNL     1      -4.496  12.404  24.550  0.00  0.00    -0.178 NA
HETATM   10  C   UNL     1      -3.820  13.284  23.790  0.00  0.00     0.071 A 
ENDROOT
BRANCH   1  11
HETATM   11  C   UNL     1       1.090  13.293  22.296  0.00  0.00     0.260 C 
HETATM   12  N   UNL     1       1.968  14.178  22.983  0.00  0.00    -0.318 N 
HETATM   13  C   UNL     1       1.675  14.692  24.321  0.00  0.00     0.159 C 
HETATM   14  O   UNL     1       1.231  12.995  21.105  0.00  0.00    -0.267 OA
BRANCH  12  15
HETATM   15  C   UNL     1       3.222  14.631  22.381  0.00  0.00     0.038 A 
HETATM   16  C   UNL     1       4.456  14.462  23.034  0.00  0.00     0.053 A 
HETATM   17  C   UNL     1       5.666  14.822  22.418  0.00  0.00     0.036 A 
HETATM   18 CL   UNL     1       7.163  14.560  23.239  0.00  0.00    -0.084 Cl
HETATM   19  C   UNL     1       5.685  15.372  21.143  0.00  0.00     0.024 A 
HETATM   20  C   UNL     1       4.480  15.559  20.482  0.00  0.00     0.004 A 
HETATM   21  C   UNL     1       3.268  15.188  21.092  0.00  0.00     0.030 A 
ENDBRANCH  12  15
ENDBRANCH   1  11
BRANCH   3  22
HETATM   22  O   UNL     1       1.043  10.632  23.834  0.00  0.00    -0.360 OA
HETATM   23  H   UNL     1       1.562  10.658  23.016  0.00  0.00     0.217 HD
ENDBRANCH   3  22
BRANCH  10  24
HETATM   24  C   UNL     1      -4.499  14.544  23.366  0.00  0.00     0.100 C 
BRANCH  24  25
HETATM   25  C   UNL     1      -4.297  14.715  21.875  0.00  0.00    -0.052 A 
HETATM   26  C   UNL     1      -3.423  15.702  21.397  0.00  0.00     0.007 A 
HETATM   27  C   UNL     1      -3.343  15.978  20.031  0.00  0.00     0.001 A 
HETATM   28  C   UNL     1      -4.112  15.254  19.122  0.00  0.00     0.007 A 
HETATM   29  C   UNL     1      -4.949  14.224  19.566  0.00  0.00    -0.061 A 
HETATM   30  C   UNL     1      -5.035  13.960  20.943  0.00  0.00     0.014 A 
HETATM   31  C   UNL     1      -5.701  13.386  18.575  0.00  0.00     0.048 C 
ENDBRANCH  24  25
ENDBRANCH  10  24
TORSDOF 5
ENDMDL
MODEL 7
REMARK VINA RESULT:    -8.857      4.671      7.202
REMARK INTER + INTRA:         -11.915
REMARK INTER:                 -10.996
REMARK INTRA:                  -0.920
REMARK UNBOUND:                -0.728
REMARK  5 active torsions:
REMARK  status: ('A' for Active; 'I' for Inactive)
REMARK    1  A    between atoms: C_7  and  N_8 
REMARK       I    between atoms: N_8  and  C_10 
REMARK    2  A    between atoms: C_10  and  C_12 
REMARK    3  A    between atoms: C_14  and  O_15 
REMARK    4  A    between atoms: C_22  and  C_23 
REMARK    5  A    between atoms: C_23  and  C_24 
ROOT
HETATM    1  C   UNL     1      -1.017  10.550  24.715  0.00  0.00     0.066 A 
HETATM    2  C   UNL     1      -1.300  11.175  23.467  0.00  0.00     0.035 A 
HETATM    3  C   UNL     1      -1.983  10.648  25.727  0.00  0.00     0.083 A 
HETATM    4  C   UNL     1      -3.231  11.251  25.516  0.00  0.00     0.069 A 
HETATM    5  C   UNL     1      -3.465  11.842  24.273  0.00  0.00     0.065 A 
HETATM    6  C   UNL     1      -2.543  11.816  23.236  0.00  0.00     0.020 A 
HETATM    7  N   UNL     1      -4.529  12.559  23.804  0.00  0.00    -0.277 N 
HETATM    8  H   UNL     1      -5.375  12.809  24.303  0.00  0.00     0.189 HD
HETATM    9  N   UNL     1      -4.387  12.995  22.546  0.00  0.00    -0.178 NA
HETATM   10  C   UNL     1      -3.190  12.516  22.166  0.00  0.00     0.071 A 
ENDROOT
BRANCH   1  11
HETATM   11  C   UNL     1       0.365   9.961  24.845  0.00  0.00     0.260 C 
HETATM   12  N   UNL     1       0.630   8.563  24.888  0.00  0.00    -0.318 N 
HETATM   13  C   UNL     1      -0.431   7.568  25.045  0.00  0.00     0.159 C 
HETATM   14  O   UNL     1       1.256  10.817  24.895  0.00  0.00    -0.267 OA
BRANCH  12  15
HETATM   15  C   UNL     1       1.992   8.039  24.783  0.00  0.00     0.038 A 
HETATM   16  C   UNL     1       2.574   7.747  23.537  0.00  0.00     0.053 A 
HETATM   17  C   UNL     1       3.910   7.323  23.435  0.00  0.00     0.036 A 
HETATM   18 CL   UNL     1       4.599   7.014  21.881  0.00  0.00    -0.084 Cl
HETATM   19  C   UNL     1       4.700   7.164  24.566  0.00  0.00     0.024 A 
HETATM   20  C   UNL     1       4.144   7.435  25.807  0.00  0.00     0.004 A 
HETATM   21  C   UNL     1       2.811   7.871  25.911  0.00  0.00     0.030 A 
ENDBRANCH  12  15
ENDBRANCH   1  11
BRANCH   3  22
HETATM   22  O   UNL     1      -1.792  10.236  27.017  0.00  0.00    -0.360 OA
HETATM   23  H   UNL     1      -1.037  10.731  27.368  0.00  0.00     0.217 HD
ENDBRANCH   3  22
BRANCH  10  24
HETATM   24  C   UNL     1      -2.687  12.831  20.796  0.00  0.00     0.100 C 
BRANCH  24  25
HETATM   25  C   UNL     1      -2.591  14.337  20.660  0.00  0.00    -0.052 A 
HETATM   26  C   UNL     1      -3.556  15.034  19.918  0.00  0.00     0.007 A 
HETATM   27  C   UNL     1      -3.398  16.394  19.651  0.00  0.00     0.001 A 
HETATM   28  C   UNL     1      -2.291  17.083  20.143  0.00  0.00     0.007 A 
HETATM   29  C   UNL     1      -1.343  16.426  20.934  0.00  0.00    -0.061 A 
HETATM   30  C   UNL     1      -1.500  15.054  21.188  0.00  0.00     0.014 A 
HETATM   31  C   UNL     1      -0.205  17.194  21.539  0.00  0.00     0.048 C 
ENDBRANCH  24  25
ENDBRANCH  10  24
TORSDOF 5
ENDMDL
MODEL 8
REMARK VINA RESULT:    -8.756      1.163      2.049
REMARK INTER + INTRA:         -11.787
REMARK INTER:                 -11.059
REMARK INTRA:                  -0.728
REMARK UNBOUND:                -0.728
REMARK  5 active torsions:
REMARK  status: ('A' for Active; 'I' for Inactive)
REMARK    1  A    between atoms: C_7  and  N_8 
REMARK       I    between atoms: N_8  and  C_10 
REMARK    2  A    between atoms: C_10  and  C_12 
REMARK    3  A    between atoms: C_14  and  O_15 
REMARK    4  A    between atoms: C_22  and  C_23 
REMARK    5  A    between atoms: C_23  and  C_24 
ROOT
HETATM    1  C   UNL     1      -2.642  15.260  21.738  0.00  0.00     0.066 A 
HETATM    2  C   UNL     1      -1.268  15.508  22.023  0.00  0.00     0.035 A 
HETATM    3  C   UNL     1      -3.210  15.920  20.640  0.00  0.00     0.083 A 
HETATM    4  C   UNL     1      -2.454  16.727  19.777  0.00  0.00     0.069 A 
HETATM    5  C   UNL     1      -1.110  16.933  20.093  0.00  0.00     0.065 A 
HETATM    6  C   UNL     1      -0.488  16.342  21.184  0.00  0.00     0.020 A 
HETATM    7  N   UNL     1      -0.157  17.715  19.503  0.00  0.00    -0.277 N 
HETATM    8  H   UNL     1      -0.264  18.320  18.698  0.00  0.00     0.189 HD
HETATM    9  N   UNL     1       1.037  17.678  20.107  0.00  0.00    -0.178 NA
HETATM   10  C   UNL     1       0.865  16.809  21.119  0.00  0.00     0.071 A 
ENDROOT
BRANCH   1  11
HETATM   11  C   UNL     1      -3.368  14.405  22.747  0.00  0.00     0.260 C 
HETATM   12  N   UNL     1      -3.009  13.062  23.052  0.00  0.00    -0.318 N 
HETATM   13  C   UNL     1      -2.048  12.305  22.248  0.00  0.00     0.159 C 
HETATM   14  O   UNL     1      -4.302  14.994  23.301  0.00  0.00    -0.267 OA
BRANCH  12  15
HETATM   15  C   UNL     1      -3.590  12.355  24.192  0.00  0.00     0.038 A 
HETATM   16  C   UNL     1      -4.675  11.474  24.038  0.00  0.00     0.053 A 
HETATM   17  C   UNL     1      -5.176  10.732  25.121  0.00  0.00     0.036 A 
HETATM   18 CL   UNL     1      -6.484   9.631  24.879  0.00  0.00    -0.084 Cl
HETATM   19  C   UNL     1      -4.625  10.855  26.390  0.00  0.00     0.024 A 
HETATM   20  C   UNL     1      -3.561  11.726  26.570  0.00  0.00     0.004 A 
HETATM   21  C   UNL     1      -3.049  12.460  25.485  0.00  0.00     0.030 A 
ENDBRANCH  12  15
ENDBRANCH   1  11
BRANCH   3  22
HETATM   22  O   UNL     1      -4.543  15.903  20.335  0.00  0.00    -0.360 OA
HETATM   23  H   UNL     1      -5.011  15.559  21.110  0.00  0.00     0.217 HD
ENDBRANCH   3  22
BRANCH  10  24
HETATM   24  C   UNL     1       2.010  16.532  22.037  0.00  0.00     0.100 C 
BRANCH  24  25
HETATM   25  C   UNL     1       1.587  15.455  23.014  0.00  0.00    -0.052 A 
HETATM   26  C   UNL     1       1.848  14.108  22.725  0.00  0.00     0.007 A 
HETATM   27  C   UNL     1       1.329  13.096  23.533  0.00  0.00     0.001 A 
HETATM   28  C   UNL     1       0.566  13.414  24.655  0.00  0.00     0.007 A 
HETATM   29  C   UNL     1       0.338  14.751  24.999  0.00  0.00    -0.061 A 
HETATM   30  C   UNL     1       0.852  15.765  24.175  0.00  0.00     0.014 A 
HETATM   31  C   UNL     1      -0.403  15.088  26.260  0.00  0.00     0.048 C 
ENDBRANCH  24  25
ENDBRANCH  10  24
TORSDOF 5
ENDMDL
