REMARK  5 active torsions:
REMARK  status: ('A' for Active; 'I' for Inactive)
REMARK    1  A    between atoms: C_7  and  N_8 
REMARK       I    between atoms: N_8  and  C_10 
REMARK    2  A    between atoms: C_10  and  C_12 
REMARK    3  A    between atoms: C_14  and  O_15 
REMARK    4  A    between atoms: C_22  and  C_23 
REMARK    5  A    between atoms: C_23  and  C_24 
ROOT
HETATM    1  C   UNL     1       5.900   4.962  -0.896  0.00  0.00     0.066 A 
HETATM    2  C   UNL     1       5.079   6.085  -0.588  0.00  0.00     0.035 A 
HETATM    3  C   UNL     1       7.230   5.208  -1.263  0.00  0.00     0.083 A 
HETATM    4  C   UNL     1       7.787   6.495  -1.245  0.00  0.00     0.069 A 
HETATM    5  C   UNL     1       6.945   7.562  -0.928  0.00  0.00     0.065 A 
HETATM    6  C   UNL     1       5.609   7.399  -0.589  0.00  0.00     0.020 A 
HETATM    7  N   UNL     1       7.170   8.910  -0.905  0.00  0.00    -0.277 N 
HETATM    8  H   UNL     1       8.028   9.398  -1.134  0.00  0.00     0.189 HD
HETATM    9  N   UNL     1       6.100   9.641  -0.570  0.00  0.00    -0.178 NA
HETATM   10  C   UNL     1       5.141   8.729  -0.334  0.00  0.00     0.071 A 
ENDROOT
BRANCH   1  11
HETATM   11  C   UNL     1       5.192   3.630  -0.918  0.00  0.00     0.260 C 
HETATM   12  N   UNL     1       5.721   2.442  -0.340  0.00  0.00    -0.318 N 
HETATM   13  C   UNL     1       7.105   2.345   0.127  0.00  0.00     0.159 C 
HETATM   14  O   UNL     1       4.091   3.674  -1.478  0.00  0.00    -0.267 OA
BRANCH  12  15
HETATM   15  C   UNL     1       4.905   1.238  -0.184  0.00  0.00     0.038 A 
HETATM   16  C   UNL     1       5.488  -0.031  -0.020  0.00  0.00     0.053 A 
HETATM   17  C   UNL     1       4.703  -1.173   0.213  0.00  0.00     0.036 A 
HETATM   18 CL   UNL     1       5.462  -2.706   0.450  0.00  0.00    -0.084 Cl
HETATM   19  C   UNL     1       3.318  -1.090   0.276  0.00  0.00     0.024 A 
HETATM   20  C   UNL     1       2.719   0.149   0.106  0.00  0.00     0.004 A 
HETATM   21  C   UNL     1       3.503   1.296  -0.115  0.00  0.00     0.030 A 
ENDBRANCH  12  15
ENDBRANCH   1  11
BRANCH   3  22
HETATM   22  O   UNL     1       8.090   4.253  -1.732  0.00  0.00    -0.360 OA
HETATM   23  H   UNL     1       7.586   3.682  -2.330  0.00  0.00     0.217 HD
ENDBRANCH   3  22
BRANCH  10  24
HETATM   24  C   UNL     1       3.777   9.198   0.053  0.00  0.00     0.100 C 
BRANCH  24  25
HETATM   25  C   UNL     1       3.701   9.243   1.565  0.00  0.00    -0.052 A 
HETATM   26  C   UNL     1       3.042   8.220   2.262  0.00  0.00     0.007 A 
HETATM   27  C   UNL     1       2.826   8.324   3.637  0.00  0.00     0.001 A 
HETATM   28  C   UNL     1       3.289   9.435   4.339  0.00  0.00     0.007 A 
HETATM   29  C   UNL     1       4.000  10.443   3.679  0.00  0.00    -0.061 A 
HETATM   30  C   UNL     1       4.203  10.339   2.293  0.00  0.00     0.014 A 
HETATM   31  C   UNL     1       4.578  11.589   4.456  0.00  0.00     0.048 C 
ENDBRANCH  24  25
ENDBRANCH  10  24
TORSDOF 5
