REMARK  4 active torsions:
REMARK  status: ('A' for Active; 'I' for Inactive)
REMARK    1  A    between atoms: O_1  and  C_2 
REMARK    2  A    between atoms: C_4  and  O_5 
REMARK    3  A    between atoms: C_6  and  C_7 
REMARK    4  A    between atoms: N_11  and  C_12 
ROOT
HETATM    1  C   UNL     1       6.555   0.042  -0.412  0.00  0.00     0.073 C 
HETATM    2  C   UNL     1       7.434   1.114  -0.509  0.00  0.00     0.053 C 
HETATM    3  C   UNL     1       8.696   0.570  -0.747  0.00  0.00     0.141 C 
HETATM    4  N   UNL     1       8.675  -0.756  -0.764  0.00  0.00    -0.179 NA
HETATM    5  N   UNL     1       7.350  -1.087  -0.689  0.00  0.00    -0.230 N 
ENDROOT
BRANCH   1   6
HETATM    6  C   UNL     1       5.116   0.084  -0.049  0.00  0.00     0.027 C 
HETATM    7  C   UNL     1       4.282   1.159  -0.418  0.00  0.00     0.081 C 
HETATM    8  C   UNL     1       2.904   1.136  -0.185  0.00  0.00     0.075 C 
HETATM    9  C   UNL     1       2.327   0.021   0.419  0.00  0.00     0.085 C 
HETATM   10  C   UNL     1       3.136  -1.019   0.872  0.00  0.00     0.040 C 
HETATM   11  C   UNL     1       4.524  -0.958   0.688  0.00  0.00     0.037 C 
HETATM   12  I   UNL     1       2.335  -2.743   1.747  0.00  0.00    -0.042 I 
BRANCH   7  13
HETATM   13  O   UNL     1       4.809   2.266  -1.032  0.00  0.00    -0.360 OA
HETATM   14  H   UNL     1       4.142   2.970  -1.062  0.00  0.00     0.217 HD
ENDBRANCH   7  13
BRANCH   9  15
HETATM   15  O   UNL     1       0.969  -0.043   0.563  0.00  0.00    -0.359 OA
HETATM   16  H   UNL     1       0.552   0.662   0.041  0.00  0.00     0.217 HD
ENDBRANCH   9  15
ENDBRANCH   1   6
BRANCH   5  17
HETATM   17  C   UNL     1       7.013  -2.461  -0.836  0.00  0.00     0.097 A 
HETATM   18  C   UNL     1       7.949  -3.434  -0.434  0.00  0.00     0.035 A 
HETATM   19  C   UNL     1       7.614  -4.790  -0.456  0.00  0.00     0.002 A 
HETATM   20  C   UNL     1       6.355  -5.191  -0.899  0.00  0.00     0.003 A 
HETATM   21  C   UNL     1       5.451  -4.238  -1.368  0.00  0.00     0.045 A 
HETATM   22  C   UNL     1       5.794  -2.886  -1.363  0.00  0.00     0.145 A 
HETATM   23  F   UNL     1       4.928  -2.023  -1.913  0.00  0.00    -0.204 F 
ENDBRANCH   5  17
TORSDOF 4
