MODEL 1
REMARK VINA RESULT:    -8.931      0.000      0.000
REMARK INTER + INTRA:         -13.323
REMARK INTER:                 -11.842
REMARK INTRA:                  -1.481
REMARK UNBOUND:                -1.521
REMARK  6 active torsions:
REMARK  status: ('A' for Active; 'I' for Inactive)
REMARK    1  A    between atoms: C_3  and  N_4 
REMARK    2  A    between atoms: C_9  and  N_10 
REMARK       I    between atoms: N_10  and  C_12 
REMARK    3  A    between atoms: C_12  and  C_14 
REMARK    4  A    between atoms: C_16  and  O_17 
REMARK    5  A    between atoms: C_24  and  C_25 
REMARK    6  A    between atoms: C_25  and  C_26 
ROOT
HETATM    1  C   UNL     1      -2.789  13.406  21.595  0.00  0.00     0.066 C 
HETATM    2  C   UNL     1      -1.966  14.263  20.827  0.00  0.00     0.035 C 
HETATM    3  C   UNL     1      -4.144  13.773  21.743  0.00  0.00     0.083 C 
HETATM    4  C   UNL     1      -4.651  14.985  21.247  0.00  0.00     0.069 C 
HETATM    5  C   UNL     1      -3.741  15.866  20.659  0.00  0.00     0.065 A 
HETATM    6  C   UNL     1      -2.400  15.555  20.473  0.00  0.00     0.020 A 
HETATM    7  N   UNL     1      -3.888  17.127  20.155  0.00  0.00    -0.277 N 
HETATM    8  H   UNL     1      -4.746  17.657  20.069  0.00  0.00     0.189 HD
HETATM    9  N   UNL     1      -2.739  17.705  19.768  0.00  0.00    -0.178 NA
HETATM   10  C   UNL     1      -1.798  16.767  19.982  0.00  0.00     0.071 A 
ENDROOT
BRANCH   1  11
HETATM   11  C   UNL     1      -2.291  12.144  22.276  0.00  0.00     0.260 C 
HETATM   12  N   UNL     1      -1.457  12.193  23.431  0.00  0.00    -0.318 N 
HETATM   13  C   UNL     1      -1.040  13.482  23.996  0.00  0.00     0.159 C 
HETATM   14  O   UNL     1      -2.755  11.101  21.797  0.00  0.00    -0.267 OA
BRANCH  12  15
HETATM   15  C   UNL     1      -0.863  11.005  24.039  0.00  0.00     0.037 A 
HETATM   16  C   UNL     1       0.175  10.312  23.402  0.00  0.00     0.032 A 
HETATM   17  C   UNL     1       0.657   9.073  23.854  0.00  0.00     0.031 A 
HETATM   18  C   UNL     1       0.145   8.445  24.987  0.00  0.00     0.029 A 
HETATM   19  C   UNL     1      -0.801   9.188  25.694  0.00  0.00     0.031 A 
HETATM   20  C   UNL     1      -1.295  10.439  25.240  0.00  0.00     0.032 A 
BRANCH  18  21
HETATM   21  N   UNL     1       0.556   7.171  25.347  0.00  0.00    -0.390 N 
HETATM   22  C   UNL     1      -0.092   5.967  24.845  0.00  0.00     0.149 C 
HETATM   23  C   UNL     1       1.634   6.943  26.307  0.00  0.00     0.149 C 
ENDBRANCH  18  21
ENDBRANCH  12  15
ENDBRANCH   1  11
BRANCH   3  24
HETATM   24  O   UNL     1      -5.074  12.983  22.377  0.00  0.00    -0.360 OA
HETATM   25  H   UNL     1      -4.812  12.912  23.324  0.00  0.00     0.217 HD
ENDBRANCH   3  24
BRANCH  10  26
HETATM   26  C   UNL     1      -0.350  17.121  19.714  0.00  0.00     0.100 C 
BRANCH  26  27
HETATM   27  C   UNL     1       0.582  16.607  20.813  0.00  0.00    -0.052 A 
HETATM   28  C   UNL     1       0.519  17.048  22.141  0.00  0.00     0.007 A 
HETATM   29  C   UNL     1       1.373  16.530  23.117  0.00  0.00     0.001 A 
HETATM   30  C   UNL     1       2.378  15.635  22.774  0.00  0.00     0.007 A 
HETATM   31  C   UNL     1       2.572  15.280  21.435  0.00  0.00    -0.061 A 
HETATM   32  C   UNL     1       1.647  15.732  20.472  0.00  0.00     0.014 A 
HETATM   33  C   UNL     1       3.766  14.438  21.075  0.00  0.00     0.048 C 
ENDBRANCH  26  27
ENDBRANCH  10  26
TORSDOF 6
ENDMDL
MODEL 2
REMARK VINA RESULT:    -8.679      1.150      1.992
REMARK INTER + INTRA:         -12.990
REMARK INTER:                 -11.699
REMARK INTRA:                  -1.291
REMARK UNBOUND:                -1.521
REMARK  6 active torsions:
REMARK  status: ('A' for Active; 'I' for Inactive)
REMARK    1  A    between atoms: C_3  and  N_4 
REMARK    2  A    between atoms: C_9  and  N_10 
REMARK       I    between atoms: N_10  and  C_12 
REMARK    3  A    between atoms: C_12  and  C_14 
REMARK    4  A    between atoms: C_16  and  O_17 
REMARK    5  A    between atoms: C_24  and  C_25 
REMARK    6  A    between atoms: C_25  and  C_26 
ROOT
HETATM    1  C   UNL     1      -2.876  13.423  21.847  0.00  0.00     0.066 C 
HETATM    2  C   UNL     1      -1.872  14.178  21.197  0.00  0.00     0.035 C 
HETATM    3  C   UNL     1      -4.203  13.894  21.754  0.00  0.00     0.083 C 
HETATM    4  C   UNL     1      -4.523  15.116  21.137  0.00  0.00     0.069 C 
HETATM    5  C   UNL     1      -3.461  15.897  20.679  0.00  0.00     0.065 A 
HETATM    6  C   UNL     1      -2.137  15.480  20.730  0.00  0.00     0.020 A 
HETATM    7  N   UNL     1      -3.421  17.140  20.112  0.00  0.00    -0.277 N 
HETATM    8  H   UNL     1      -4.208  17.726  19.866  0.00  0.00     0.189 HD
HETATM    9  N   UNL     1      -2.181  17.612  19.902  0.00  0.00    -0.178 NA
HETATM   10  C   UNL     1      -1.367  16.619  20.303  0.00  0.00     0.071 A 
ENDROOT
BRANCH   1  11
HETATM   11  C   UNL     1      -2.600  12.162  22.646  0.00  0.00     0.260 C 
HETATM   12  N   UNL     1      -2.120  12.213  23.988  0.00  0.00    -0.318 N 
HETATM   13  C   UNL     1      -1.865  13.502  24.640  0.00  0.00     0.159 C 
HETATM   14  O   UNL     1      -2.921  11.119  22.062  0.00  0.00    -0.267 OA
BRANCH  12  15
HETATM   15  C   UNL     1      -1.730  11.024  24.742  0.00  0.00     0.037 A 
HETATM   16  C   UNL     1      -2.169  10.829  26.059  0.00  0.00     0.032 A 
HETATM   17  C   UNL     1      -1.684   9.801  26.882  0.00  0.00     0.031 A 
HETATM   18  C   UNL     1      -0.736   8.881  26.442  0.00  0.00     0.029 A 
HETATM   19  C   UNL     1      -0.388   8.994  25.095  0.00  0.00     0.031 A 
HETATM   20  C   UNL     1      -0.873  10.035  24.258  0.00  0.00     0.032 A 
BRANCH  18  21
HETATM   21  N   UNL     1      -0.188   7.947  27.306  0.00  0.00    -0.390 N 
HETATM   22  C   UNL     1       1.084   8.158  27.985  0.00  0.00     0.149 C 
HETATM   23  C   UNL     1      -0.818   6.652  27.554  0.00  0.00     0.149 C 
ENDBRANCH  18  21
ENDBRANCH  12  15
ENDBRANCH   1  11
BRANCH   3  24
HETATM   24  O   UNL     1      -5.285  13.207  22.251  0.00  0.00    -0.360 OA
HETATM   25  H   UNL     1      -5.209  13.198  23.234  0.00  0.00     0.217 HD
ENDBRANCH   3  24
BRANCH  10  26
HETATM   26  C   UNL     1       0.129  16.853  20.269  0.00  0.00     0.100 C 
BRANCH  26  27
HETATM   27  C   UNL     1       0.872  15.981  21.283  0.00  0.00    -0.052 A 
HETATM   28  C   UNL     1       1.643  14.869  20.919  0.00  0.00     0.007 A 
HETATM   29  C   UNL     1       2.327  14.117  21.877  0.00  0.00     0.001 A 
HETATM   30  C   UNL     1       2.179  14.395  23.230  0.00  0.00     0.007 A 
HETATM   31  C   UNL     1       1.304  15.403  23.647  0.00  0.00    -0.061 A 
HETATM   32  C   UNL     1       0.692  16.217  22.671  0.00  0.00     0.014 A 
HETATM   33  C   UNL     1       1.042  15.572  25.118  0.00  0.00     0.048 C 
ENDBRANCH  26  27
ENDBRANCH  10  26
TORSDOF 6
ENDMDL
MODEL 3
REMARK VINA RESULT:    -8.338      2.710      4.577
REMARK INTER + INTRA:         -12.541
REMARK INTER:                 -11.479
REMARK INTRA:                  -1.061
REMARK UNBOUND:                -1.521
REMARK  6 active torsions:
REMARK  status: ('A' for Active; 'I' for Inactive)
REMARK    1  A    between atoms: C_3  and  N_4 
REMARK    2  A    between atoms: C_9  and  N_10 
REMARK       I    between atoms: N_10  and  C_12 
REMARK    3  A    between atoms: C_12  and  C_14 
REMARK    4  A    between atoms: C_16  and  O_17 
REMARK    5  A    between atoms: C_24  and  C_25 
REMARK    6  A    between atoms: C_25  and  C_26 
ROOT
HETATM    1  C   UNL     1      -1.810  10.733  24.830  0.00  0.00     0.066 C 
HETATM    2  C   UNL     1      -2.303  11.180  23.581  0.00  0.00     0.035 C 
HETATM    3  C   UNL     1      -2.424  11.250  25.990  0.00  0.00     0.083 C 
HETATM    4  C   UNL     1      -3.412  12.247  25.935  0.00  0.00     0.069 C 
HETATM    5  C   UNL     1      -3.719  12.773  24.679  0.00  0.00     0.065 A 
HETATM    6  C   UNL     1      -3.158  12.295  23.501  0.00  0.00     0.020 A 
HETATM    7  N   UNL     1      -4.558  13.779  24.292  0.00  0.00    -0.277 N 
HETATM    8  H   UNL     1      -5.179  14.319  24.881  0.00  0.00     0.189 HD
HETATM    9  N   UNL     1      -4.501  14.073  22.983  0.00  0.00    -0.178 NA
HETATM   10  C   UNL     1      -3.621  13.192  22.474  0.00  0.00     0.071 A 
ENDROOT
BRANCH   1  11
HETATM   11  C   UNL     1      -0.658   9.756  24.981  0.00  0.00     0.260 C 
HETATM   12  N   UNL     1       0.700  10.166  24.826  0.00  0.00    -0.318 N 
HETATM   13  C   UNL     1       1.025  11.559  24.498  0.00  0.00     0.159 C 
HETATM   14  O   UNL     1      -1.004   8.625  25.344  0.00  0.00    -0.267 OA
BRANCH  12  15
HETATM   15  C   UNL     1       1.823   9.232  24.846  0.00  0.00     0.037 A 
HETATM   16  C   UNL     1       1.987   8.279  23.832  0.00  0.00     0.032 A 
HETATM   17  C   UNL     1       2.941   7.252  23.895  0.00  0.00     0.031 A 
HETATM   18  C   UNL     1       3.814   7.113  24.973  0.00  0.00     0.029 A 
HETATM   19  C   UNL     1       3.739   8.131  25.924  0.00  0.00     0.031 A 
HETATM   20  C   UNL     1       2.772   9.170  25.867  0.00  0.00     0.032 A 
BRANCH  18  21
HETATM   21  N   UNL     1       4.668   6.026  25.068  0.00  0.00    -0.390 N 
HETATM   22  C   UNL     1       4.880   5.303  26.314  0.00  0.00     0.149 C 
HETATM   23  C   UNL     1       5.466   5.562  23.935  0.00  0.00     0.149 C 
ENDBRANCH  18  21
ENDBRANCH  12  15
ENDBRANCH   1  11
BRANCH   3  24
HETATM   24  O   UNL     1      -2.112  10.826  27.261  0.00  0.00    -0.360 OA
HETATM   25  H   UNL     1      -2.884  10.318  27.605  0.00  0.00     0.217 HD
ENDBRANCH   3  24
BRANCH  10  26
HETATM   26  C   UNL     1      -3.262  13.294  21.006  0.00  0.00     0.100 C 
BRANCH  26  27
HETATM   27  C   UNL     1      -2.927  14.728  20.592  0.00  0.00    -0.052 A 
HETATM   28  C   UNL     1      -3.720  15.477  19.713  0.00  0.00     0.007 A 
HETATM   29  C   UNL     1      -3.391  16.794  19.383  0.00  0.00     0.001 A 
HETATM   30  C   UNL     1      -2.209  17.362  19.843  0.00  0.00     0.007 A 
HETATM   31  C   UNL     1      -1.315  16.602  20.603  0.00  0.00    -0.061 A 
HETATM   32  C   UNL     1      -1.700  15.307  21.009  0.00  0.00     0.014 A 
HETATM   33  C   UNL     1       0.025  17.191  20.948  0.00  0.00     0.048 C 
ENDBRANCH  26  27
ENDBRANCH  10  26
TORSDOF 6
ENDMDL
MODEL 4
REMARK VINA RESULT:    -8.222      3.160      6.580
REMARK INTER + INTRA:         -12.387
REMARK INTER:                 -10.986
REMARK INTRA:                  -1.401
REMARK UNBOUND:                -1.521
REMARK  6 active torsions:
REMARK  status: ('A' for Active; 'I' for Inactive)
REMARK    1  A    between atoms: C_3  and  N_4 
REMARK    2  A    between atoms: C_9  and  N_10 
REMARK       I    between atoms: N_10  and  C_12 
REMARK    3  A    between atoms: C_12  and  C_14 
REMARK    4  A    between atoms: C_16  and  O_17 
REMARK    5  A    between atoms: C_24  and  C_25 
REMARK    6  A    between atoms: C_25  and  C_26 
ROOT
HETATM    1  C   UNL     1      -0.883  15.938  21.422  0.00  0.00     0.066 C 
HETATM    2  C   UNL     1      -1.738  15.247  22.314  0.00  0.00     0.035 C 
HETATM    3  C   UNL     1      -1.484  16.588  20.323  0.00  0.00     0.083 C 
HETATM    4  C   UNL     1      -2.857  16.479  20.047  0.00  0.00     0.069 C 
HETATM    5  C   UNL     1      -3.608  15.632  20.864  0.00  0.00     0.065 A 
HETATM    6  C   UNL     1      -3.075  14.977  21.967  0.00  0.00     0.020 A 
HETATM    7  N   UNL     1      -4.920  15.252  20.824  0.00  0.00    -0.277 N 
HETATM    8  H   UNL     1      -5.633  15.580  20.184  0.00  0.00     0.189 HD
HETATM    9  N   UNL     1      -5.254  14.320  21.731  0.00  0.00    -0.178 NA
HETATM   10  C   UNL     1      -4.125  14.108  22.432  0.00  0.00     0.071 A 
ENDROOT
BRANCH   1  11
HETATM   11  C   UNL     1       0.626  15.996  21.574  0.00  0.00     0.260 C 
HETATM   12  N   UNL     1       1.444  14.841  21.397  0.00  0.00    -0.318 N 
HETATM   13  C   UNL     1       0.841  13.544  21.071  0.00  0.00     0.159 C 
HETATM   14  O   UNL     1       1.067  17.137  21.761  0.00  0.00    -0.267 OA
BRANCH  12  15
HETATM   15  C   UNL     1       2.882  14.834  21.653  0.00  0.00     0.037 A 
HETATM   16  C   UNL     1       3.387  14.536  22.925  0.00  0.00     0.032 A 
HETATM   17  C   UNL     1       4.741  14.687  23.265  0.00  0.00     0.031 A 
HETATM   18  C   UNL     1       5.692  15.133  22.350  0.00  0.00     0.029 A 
HETATM   19  C   UNL     1       5.218  15.311  21.050  0.00  0.00     0.031 A 
HETATM   20  C   UNL     1       3.849  15.164  20.701  0.00  0.00     0.032 A 
BRANCH  18  21
HETATM   21  N   UNL     1       6.998  15.383  22.739  0.00  0.00    -0.390 N 
HETATM   22  C   UNL     1       7.851  14.360  23.328  0.00  0.00     0.149 C 
HETATM   23  C   UNL     1       7.597  16.713  22.644  0.00  0.00     0.149 C 
ENDBRANCH  18  21
ENDBRANCH  12  15
ENDBRANCH   1  11
BRANCH   3  24
HETATM   24  O   UNL     1      -0.786  17.377  19.439  0.00  0.00    -0.360 OA
HETATM   25  H   UNL     1      -0.884  16.981  18.542  0.00  0.00     0.217 HD
ENDBRANCH   3  24
BRANCH  10  26
HETATM   26  C   UNL     1      -4.131  13.042  23.507  0.00  0.00     0.100 C 
BRANCH  26  27
HETATM   27  C   UNL     1      -2.897  12.142  23.435  0.00  0.00    -0.052 A 
HETATM   28  C   UNL     1      -2.443  11.557  22.246  0.00  0.00     0.007 A 
HETATM   29  C   UNL     1      -1.294  10.763  22.222  0.00  0.00     0.001 A 
HETATM   30  C   UNL     1      -0.627  10.450  23.400  0.00  0.00     0.007 A 
HETATM   31  C   UNL     1      -1.130  10.891  24.627  0.00  0.00    -0.061 A 
HETATM   32  C   UNL     1      -2.233  11.770  24.633  0.00  0.00     0.014 A 
HETATM   33  C   UNL     1      -0.480  10.404  25.893  0.00  0.00     0.048 C 
ENDBRANCH  26  27
ENDBRANCH  10  26
TORSDOF 6
ENDMDL
MODEL 5
REMARK VINA RESULT:    -8.128      1.681      2.425
REMARK INTER + INTRA:         -12.262
REMARK INTER:                 -10.875
REMARK INTRA:                  -1.387
REMARK UNBOUND:                -1.521
REMARK  6 active torsions:
REMARK  status: ('A' for Active; 'I' for Inactive)
REMARK    1  A    between atoms: C_3  and  N_4 
REMARK    2  A    between atoms: C_9  and  N_10 
REMARK       I    between atoms: N_10  and  C_12 
REMARK    3  A    between atoms: C_12  and  C_14 
REMARK    4  A    between atoms: C_16  and  O_17 
REMARK    5  A    between atoms: C_24  and  C_25 
REMARK    6  A    between atoms: C_25  and  C_26 
ROOT
HETATM    1  C   UNL     1      -1.098  12.511  22.103  0.00  0.00     0.066 C 
HETATM    2  C   UNL     1      -0.441  13.747  21.898  0.00  0.00     0.035 C 
HETATM    3  C   UNL     1      -2.362  12.342  21.500  0.00  0.00     0.083 C 
HETATM    4  C   UNL     1      -3.008  13.381  20.809  0.00  0.00     0.069 C 
HETATM    5  C   UNL     1      -2.383  14.629  20.803  0.00  0.00     0.065 A 
HETATM    6  C   UNL     1      -1.133  14.852  21.367  0.00  0.00     0.020 A 
HETATM    7  N   UNL     1      -2.767  15.840  20.299  0.00  0.00    -0.277 N 
HETATM    8  H   UNL     1      -3.603  16.043  19.765  0.00  0.00     0.189 HD
HETATM    9  N   UNL     1      -1.932  16.850  20.590  0.00  0.00    -0.178 NA
HETATM   10  C   UNL     1      -0.928  16.275  21.276  0.00  0.00     0.071 A 
ENDROOT
BRANCH   1  11
HETATM   11  C   UNL     1      -0.529  11.383  22.945  0.00  0.00     0.260 C 
HETATM   12  N   UNL     1      -0.686  11.350  24.362  0.00  0.00    -0.318 N 
HETATM   13  C   UNL     1      -1.400  12.427  25.058  0.00  0.00     0.159 C 
HETATM   14  O   UNL     1      -0.020  10.471  22.281  0.00  0.00    -0.267 OA
BRANCH  12  15
HETATM   15  C   UNL     1      -0.051  10.347  25.213  0.00  0.00     0.037 A 
HETATM   16  C   UNL     1      -0.817   9.509  26.035  0.00  0.00     0.032 A 
HETATM   17  C   UNL     1      -0.252   8.655  26.995  0.00  0.00     0.031 A 
HETATM   18  C   UNL     1       1.125   8.566  27.192  0.00  0.00     0.029 A 
HETATM   19  C   UNL     1       1.896   9.304  26.293  0.00  0.00     0.031 A 
HETATM   20  C   UNL     1       1.330  10.172  25.323  0.00  0.00     0.032 A 
BRANCH  18  21
HETATM   21  N   UNL     1       1.653   7.804  28.222  0.00  0.00    -0.390 N 
HETATM   22  C   UNL     1       2.281   6.509  27.997  0.00  0.00     0.149 C 
HETATM   23  C   UNL     1       1.563   8.217  29.621  0.00  0.00     0.149 C 
ENDBRANCH  18  21
ENDBRANCH  12  15
ENDBRANCH   1  11
BRANCH   3  24
HETATM   24  O   UNL     1      -3.063  11.160  21.534  0.00  0.00    -0.360 OA
HETATM   25  H   UNL     1      -3.309  10.930  20.608  0.00  0.00     0.217 HD
ENDBRANCH   3  24
BRANCH  10  26
HETATM   26  C   UNL     1       0.170  17.159  21.829  0.00  0.00     0.100 C 
BRANCH  26  27
HETATM   27  C   UNL     1       1.564  16.636  21.476  0.00  0.00    -0.052 A 
HETATM   28  C   UNL     1       2.099  16.692  20.182  0.00  0.00     0.007 A 
HETATM   29  C   UNL     1       3.388  16.227  19.911  0.00  0.00     0.001 A 
HETATM   30  C   UNL     1       4.136  15.603  20.901  0.00  0.00     0.007 A 
HETATM   31  C   UNL     1       3.585  15.393  22.168  0.00  0.00    -0.061 A 
HETATM   32  C   UNL     1       2.322  15.950  22.460  0.00  0.00     0.014 A 
HETATM   33  C   UNL     1       4.356  14.574  23.167  0.00  0.00     0.048 C 
ENDBRANCH  26  27
ENDBRANCH  10  26
TORSDOF 6
ENDMDL
MODEL 6
REMARK VINA RESULT:    -8.121      1.378      2.045
REMARK INTER + INTRA:         -12.253
REMARK INTER:                 -11.561
REMARK INTRA:                  -0.692
REMARK UNBOUND:                -1.521
REMARK  6 active torsions:
REMARK  status: ('A' for Active; 'I' for Inactive)
REMARK    1  A    between atoms: C_3  and  N_4 
REMARK    2  A    between atoms: C_9  and  N_10 
REMARK       I    between atoms: N_10  and  C_12 
REMARK    3  A    between atoms: C_12  and  C_14 
REMARK    4  A    between atoms: C_16  and  O_17 
REMARK    5  A    between atoms: C_24  and  C_25 
REMARK    6  A    between atoms: C_25  and  C_26 
ROOT
HETATM    1  C   UNL     1      -1.685  13.332  21.644  0.00  0.00     0.066 C 
HETATM    2  C   UNL     1      -0.687  14.334  21.697  0.00  0.00     0.035 C 
HETATM    3  C   UNL     1      -2.797  13.571  20.809  0.00  0.00     0.083 C 
HETATM    4  C   UNL     1      -2.979  14.788  20.132  0.00  0.00     0.069 C 
HETATM    5  C   UNL     1      -2.048  15.799  20.375  0.00  0.00     0.065 A 
HETATM    6  C   UNL     1      -0.927  15.619  21.174  0.00  0.00     0.020 A 
HETATM    7  N   UNL     1      -1.975  17.095  19.945  0.00  0.00    -0.277 N 
HETATM    8  H   UNL     1      -2.596  17.560  19.296  0.00  0.00     0.189 HD
HETATM    9  N   UNL     1      -0.972  17.802  20.490  0.00  0.00    -0.178 NA
HETATM   10  C   UNL     1      -0.326  16.924  21.279  0.00  0.00     0.071 A 
ENDROOT
BRANCH   1  11
HETATM   11  C   UNL     1      -1.630  12.044  22.445  0.00  0.00     0.260 C 
HETATM   12  N   UNL     1      -1.512  12.048  23.867  0.00  0.00    -0.318 N 
HETATM   13  C   UNL     1      -1.426  13.313  24.604  0.00  0.00     0.159 C 
HETATM   14  O   UNL     1      -1.797  11.024  21.765  0.00  0.00    -0.267 OA
BRANCH  12  15
HETATM   15  C   UNL     1      -1.336  10.832  24.657  0.00  0.00     0.037 A 
HETATM   16  C   UNL     1      -1.843  10.738  25.960  0.00  0.00     0.032 A 
HETATM   17  C   UNL     1      -1.551   9.668  26.819  0.00  0.00     0.031 A 
HETATM   18  C   UNL     1      -0.743   8.601  26.430  0.00  0.00     0.029 A 
HETATM   19  C   UNL     1      -0.338   8.627  25.094  0.00  0.00     0.031 A 
HETATM   20  C   UNL     1      -0.627   9.710  24.222  0.00  0.00     0.032 A 
BRANCH  18  21
HETATM   21  N   UNL     1      -0.375   7.615  27.331  0.00  0.00    -0.390 N 
HETATM   22  C   UNL     1       0.223   7.918  28.624  0.00  0.00     0.149 C 
HETATM   23  C   UNL     1      -0.505   6.192  27.023  0.00  0.00     0.149 C 
ENDBRANCH  18  21
ENDBRANCH  12  15
ENDBRANCH   1  11
BRANCH   3  24
HETATM   24  O   UNL     1      -3.787  12.642  20.588  0.00  0.00    -0.360 OA
HETATM   25  H   UNL     1      -3.369  11.750  20.599  0.00  0.00     0.217 HD
ENDBRANCH   3  24
BRANCH  10  26
HETATM   26  C   UNL     1       0.837  17.420  22.112  0.00  0.00     0.100 C 
BRANCH  26  27
HETATM   27  C   UNL     1       1.720  16.275  22.609  0.00  0.00    -0.052 A 
HETATM   28  C   UNL     1       1.524  15.632  23.839  0.00  0.00     0.007 A 
HETATM   29  C   UNL     1       2.340  14.572  24.241  0.00  0.00     0.001 A 
HETATM   30  C   UNL     1       3.434  14.193  23.473  0.00  0.00     0.007 A 
HETATM   31  C   UNL     1       3.754  14.902  22.312  0.00  0.00    -0.061 A 
HETATM   32  C   UNL     1       2.872  15.908  21.865  0.00  0.00     0.014 A 
HETATM   33  C   UNL     1       5.033  14.572  21.591  0.00  0.00     0.048 C 
ENDBRANCH  26  27
ENDBRANCH  10  26
TORSDOF 6
ENDMDL
MODEL 7
REMARK VINA RESULT:    -7.748      2.797      4.594
REMARK INTER + INTRA:         -11.760
REMARK INTER:                 -10.787
REMARK INTRA:                  -0.974
REMARK UNBOUND:                -1.521
REMARK  6 active torsions:
REMARK  status: ('A' for Active; 'I' for Inactive)
REMARK    1  A    between atoms: C_3  and  N_4 
REMARK    2  A    between atoms: C_9  and  N_10 
REMARK       I    between atoms: N_10  and  C_12 
REMARK    3  A    between atoms: C_12  and  C_14 
REMARK    4  A    between atoms: C_16  and  O_17 
REMARK    5  A    between atoms: C_24  and  C_25 
REMARK    6  A    between atoms: C_25  and  C_26 
ROOT
HETATM    1  C   UNL     1      -1.668  10.374  24.966  0.00  0.00     0.066 C 
HETATM    2  C   UNL     1      -2.081  11.115  23.833  0.00  0.00     0.035 C 
HETATM    3  C   UNL     1      -2.387  10.569  26.164  0.00  0.00     0.083 C 
HETATM    4  C   UNL     1      -3.405  11.531  26.279  0.00  0.00     0.069 C 
HETATM    5  C   UNL     1      -3.635  12.353  25.175  0.00  0.00     0.065 A 
HETATM    6  C   UNL     1      -2.970  12.199  23.966  0.00  0.00     0.020 A 
HETATM    7  N   UNL     1      -4.479  13.411  24.985  0.00  0.00    -0.277 N 
HETATM    8  H   UNL     1      -5.163  13.773  25.638  0.00  0.00     0.189 HD
HETATM    9  N   UNL     1      -4.334  14.028  23.802  0.00  0.00    -0.178 NA
HETATM   10  C   UNL     1      -3.386  13.320  23.162  0.00  0.00     0.071 A 
ENDROOT
BRANCH   1  11
HETATM   11  C   UNL     1      -0.495   9.410  24.961  0.00  0.00     0.260 C 
HETATM   12  N   UNL     1       0.850   9.865  24.832  0.00  0.00    -0.318 N 
HETATM   13  C   UNL     1       1.143  11.296  24.685  0.00  0.00     0.159 C 
HETATM   14  O   UNL     1      -0.813   8.234  25.178  0.00  0.00    -0.267 OA
BRANCH  12  15
HETATM   15  C   UNL     1       1.990   8.961  24.704  0.00  0.00     0.037 A 
HETATM   16  C   UNL     1       2.097   8.084  23.616  0.00  0.00     0.032 A 
HETATM   17  C   UNL     1       3.074   7.079  23.537  0.00  0.00     0.031 A 
HETATM   18  C   UNL     1       4.027   6.889  24.535  0.00  0.00     0.029 A 
HETATM   19  C   UNL     1       4.003   7.837  25.559  0.00  0.00     0.031 A 
HETATM   20  C   UNL     1       3.015   8.853  25.646  0.00  0.00     0.032 A 
BRANCH  18  21
HETATM   21  N   UNL     1       4.907   5.819  24.490  0.00  0.00    -0.390 N 
HETATM   22  C   UNL     1       6.059   5.789  23.599  0.00  0.00     0.149 C 
HETATM   23  C   UNL     1       4.709   4.614  25.292  0.00  0.00     0.149 C 
ENDBRANCH  18  21
ENDBRANCH  12  15
ENDBRANCH   1  11
BRANCH   3  24
HETATM   24  O   UNL     1      -2.158   9.842  27.308  0.00  0.00    -0.360 OA
HETATM   25  H   UNL     1      -3.032   9.628  27.708  0.00  0.00     0.217 HD
ENDBRANCH   3  24
BRANCH  10  26
HETATM   26  C   UNL     1      -2.921  13.796  21.803  0.00  0.00     0.100 C 
BRANCH  26  27
HETATM   27  C   UNL     1      -1.901  14.931  21.907  0.00  0.00    -0.052 A 
HETATM   28  C   UNL     1      -1.174  15.204  23.074  0.00  0.00     0.007 A 
HETATM   29  C   UNL     1      -0.232  16.235  23.115  0.00  0.00     0.001 A 
HETATM   30  C   UNL     1      -0.064  17.082  22.028  0.00  0.00     0.007 A 
HETATM   31  C   UNL     1      -0.872  16.938  20.896  0.00  0.00    -0.061 A 
HETATM   32  C   UNL     1      -1.752  15.838  20.825  0.00  0.00     0.014 A 
HETATM   33  C   UNL     1      -0.778  17.968  19.803  0.00  0.00     0.048 C 
ENDBRANCH  26  27
ENDBRANCH  10  26
TORSDOF 6
ENDMDL
MODEL 8
REMARK VINA RESULT:    -7.679      2.178      4.559
REMARK INTER + INTRA:         -11.669
REMARK INTER:                 -10.427
REMARK INTRA:                  -1.242
REMARK UNBOUND:                -1.521
REMARK  6 active torsions:
REMARK  status: ('A' for Active; 'I' for Inactive)
REMARK    1  A    between atoms: C_3  and  N_4 
REMARK    2  A    between atoms: C_9  and  N_10 
REMARK       I    between atoms: N_10  and  C_12 
REMARK    3  A    between atoms: C_12  and  C_14 
REMARK    4  A    between atoms: C_16  and  O_17 
REMARK    5  A    between atoms: C_24  and  C_25 
REMARK    6  A    between atoms: C_25  and  C_26 
ROOT
HETATM    1  C   UNL     1       1.153  14.484  22.116  0.00  0.00     0.066 C 
HETATM    2  C   UNL     1       0.121  15.438  21.954  0.00  0.00     0.035 C 
HETATM    3  C   UNL     1       2.356  14.707  21.412  0.00  0.00     0.083 C 
HETATM    4  C   UNL     1       2.506  15.767  20.502  0.00  0.00     0.069 C 
HETATM    5  C   UNL     1       1.385  16.561  20.254  0.00  0.00     0.065 A 
HETATM    6  C   UNL     1       0.180  16.398  20.926  0.00  0.00     0.020 A 
HETATM    7  N   UNL     1       1.175  17.601  19.393  0.00  0.00    -0.277 N 
HETATM    8  H   UNL     1       1.854  18.035  18.781  0.00  0.00     0.189 HD
HETATM    9  N   UNL     1      -0.091  18.047  19.363  0.00  0.00    -0.178 NA
HETATM   10  C   UNL     1      -0.736  17.301  20.279  0.00  0.00     0.071 A 
ENDROOT
BRANCH   1  11
HETATM   11  C   UNL     1       1.027  13.241  22.978  0.00  0.00     0.260 C 
HETATM   12  N   UNL     1       0.216  12.135  22.586  0.00  0.00    -0.318 N 
HETATM   13  C   UNL     1      -0.540  12.172  21.329  0.00  0.00     0.159 C 
HETATM   14  O   UNL     1       1.759  13.247  23.975  0.00  0.00    -0.267 OA
BRANCH  12  15
HETATM   15  C   UNL     1      -0.024  10.978  23.444  0.00  0.00     0.037 A 
HETATM   16  C   UNL     1      -0.980  11.023  24.467  0.00  0.00     0.032 A 
HETATM   17  C   UNL     1      -1.124  10.008  25.425  0.00  0.00     0.031 A 
HETATM   18  C   UNL     1      -0.331   8.862  25.420  0.00  0.00     0.029 A 
HETATM   19  C   UNL     1       0.536   8.754  24.332  0.00  0.00     0.031 A 
HETATM   20  C   UNL     1       0.689   9.780  23.362  0.00  0.00     0.032 A 
BRANCH  18  21
HETATM   21  N   UNL     1      -0.413   7.929  26.441  0.00  0.00    -0.390 N 
HETATM   22  C   UNL     1      -0.692   8.300  27.821  0.00  0.00     0.149 C 
HETATM   23  C   UNL     1      -0.164   6.506  26.217  0.00  0.00     0.149 C 
ENDBRANCH  18  21
ENDBRANCH  12  15
ENDBRANCH   1  11
BRANCH   3  24
HETATM   24  O   UNL     1       3.472  13.917  21.556  0.00  0.00    -0.360 OA
HETATM   25  H   UNL     1       3.349  13.120  20.990  0.00  0.00     0.217 HD
ENDBRANCH   3  24
BRANCH  10  26
HETATM   26  C   UNL     1      -2.227  17.500  20.452  0.00  0.00     0.100 C 
BRANCH  26  27
HETATM   27  C   UNL     1      -2.997  16.180  20.383  0.00  0.00    -0.052 A 
HETATM   28  C   UNL     1      -3.785  15.809  19.285  0.00  0.00     0.007 A 
HETATM   29  C   UNL     1      -4.449  14.580  19.253  0.00  0.00     0.001 A 
HETATM   30  C   UNL     1      -4.426  13.736  20.356  0.00  0.00     0.007 A 
HETATM   31  C   UNL     1      -3.774  14.132  21.527  0.00  0.00    -0.061 A 
HETATM   32  C   UNL     1      -3.027  15.328  21.518  0.00  0.00     0.014 A 
HETATM   33  C   UNL     1      -3.902  13.271  22.754  0.00  0.00     0.048 C 
ENDBRANCH  26  27
ENDBRANCH  10  26
TORSDOF 6
ENDMDL
MODEL 9
REMARK VINA RESULT:    -7.534      3.552      5.805
REMARK INTER + INTRA:         -11.477
REMARK INTER:                  -9.956
REMARK INTRA:                  -1.521
REMARK UNBOUND:                -1.521
REMARK  6 active torsions:
REMARK  status: ('A' for Active; 'I' for Inactive)
REMARK    1  A    between atoms: C_3  and  N_4 
REMARK    2  A    between atoms: C_9  and  N_10 
REMARK       I    between atoms: N_10  and  C_12 
REMARK    3  A    between atoms: C_12  and  C_14 
REMARK    4  A    between atoms: C_16  and  O_17 
REMARK    5  A    between atoms: C_24  and  C_25 
REMARK    6  A    between atoms: C_25  and  C_26 
ROOT
HETATM    1  C   UNL     1      -1.165   9.616  25.784  0.00  0.00     0.066 C 
HETATM    2  C   UNL     1      -1.974  10.268  24.822  0.00  0.00     0.035 C 
HETATM    3  C   UNL     1      -1.442   9.873  27.143  0.00  0.00     0.083 C 
HETATM    4  C   UNL     1      -2.405  10.813  27.547  0.00  0.00     0.069 C 
HETATM    5  C   UNL     1      -3.036  11.552  26.545  0.00  0.00     0.065 A 
HETATM    6  C   UNL     1      -2.815  11.334  25.191  0.00  0.00     0.020 A 
HETATM    7  N   UNL     1      -3.944  12.572  26.598  0.00  0.00    -0.277 N 
HETATM    8  H   UNL     1      -4.382  12.960  27.424  0.00  0.00     0.189 HD
HETATM    9  N   UNL     1      -4.240  13.111  25.404  0.00  0.00    -0.178 NA
HETATM   10  C   UNL     1      -3.533  12.386  24.519  0.00  0.00     0.071 A 
ENDROOT
BRANCH   1  11
HETATM   11  C   UNL     1      -0.018   8.686  25.431  0.00  0.00     0.260 C 
HETATM   12  N   UNL     1       1.262   9.184  25.047  0.00  0.00    -0.318 N 
HETATM   13  C   UNL     1       1.507  10.628  24.968  0.00  0.00     0.159 C 
HETATM   14  O   UNL     1      -0.274   7.488  25.605  0.00  0.00    -0.267 OA
BRANCH  12  15
HETATM   15  C   UNL     1       2.348   8.323  24.587  0.00  0.00     0.037 A 
HETATM   16  C   UNL     1       3.561   8.256  25.285  0.00  0.00     0.032 A 
HETATM   17  C   UNL     1       4.691   7.585  24.793  0.00  0.00     0.031 A 
HETATM   18  C   UNL     1       4.686   6.918  23.570  0.00  0.00     0.029 A 
HETATM   19  C   UNL     1       3.447   6.876  22.929  0.00  0.00     0.031 A 
HETATM   20  C   UNL     1       2.301   7.556  23.421  0.00  0.00     0.032 A 
BRANCH  18  21
HETATM   21  N   UNL     1       5.845   6.362  23.051  0.00  0.00    -0.390 N 
HETATM   22  C   UNL     1       6.523   6.911  21.885  0.00  0.00     0.149 C 
HETATM   23  C   UNL     1       6.438   5.146  23.601  0.00  0.00     0.149 C 
ENDBRANCH  18  21
ENDBRANCH  12  15
ENDBRANCH   1  11
BRANCH   3  24
HETATM   24  O   UNL     1      -0.803   9.232  28.178  0.00  0.00    -0.360 OA
HETATM   25  H   UNL     1      -1.138   8.307  28.210  0.00  0.00     0.217 HD
ENDBRANCH   3  24
BRANCH  10  26
HETATM   26  C   UNL     1      -3.581  12.782  23.058  0.00  0.00     0.100 C 
BRANCH  26  27
HETATM   27  C   UNL     1      -2.216  12.653  22.380  0.00  0.00    -0.052 A 
HETATM   28  C   UNL     1      -1.973  11.790  21.302  0.00  0.00     0.007 A 
HETATM   29  C   UNL     1      -0.716  11.725  20.696  0.00  0.00     0.001 A 
HETATM   30  C   UNL     1       0.355  12.441  21.213  0.00  0.00     0.007 A 
HETATM   31  C   UNL     1       0.194  13.200  22.376  0.00  0.00    -0.061 A 
HETATM   32  C   UNL     1      -1.098  13.336  22.925  0.00  0.00     0.014 A 
HETATM   33  C   UNL     1       1.407  13.833  23.002  0.00  0.00     0.048 C 
ENDBRANCH  26  27
ENDBRANCH  10  26
TORSDOF 6
ENDMDL
