MODEL 1
REMARK VINA RESULT:    -8.132      0.000      0.000
REMARK INTER + INTRA:         -12.568
REMARK INTER:                 -11.297
REMARK INTRA:                  -1.271
REMARK UNBOUND:                -1.584
REMARK  7 active torsions:
REMARK  status: ('A' for Active; 'I' for Inactive)
REMARK    1  A    between atoms: C_7  and  N_8 
REMARK    2  A    between atoms: C_12  and  C_13 
REMARK    3  A    between atoms: C_14  and  O_15 
REMARK    4  A    between atoms: C_17  and  O_18 
REMARK    5  A    between atoms: C_20  and  C_21 
REMARK       I    between atoms: C_21  and  N_23 
REMARK    6  A    between atoms: N_23  and  C_25 
REMARK    7  A    between atoms: C_25  and  C_26 
ROOT
HETATM    1  C   UNL     1       8.470  13.168  22.198  0.00  0.00     0.027 A 
HETATM    2  C   UNL     1       8.478  13.512  20.828  0.00  0.00     0.081 A 
HETATM    3  C   UNL     1       8.034  12.636  19.839  0.00  0.00     0.075 A 
HETATM    4  C   UNL     1       7.480  11.412  20.193  0.00  0.00     0.084 A 
HETATM    5  C   UNL     1       8.002  11.867  22.509  0.00  0.00     0.036 A 
HETATM    6  C   UNL     1       7.431  11.005  21.541  0.00  0.00     0.066 A 
ENDROOT
BRANCH   1   7
HETATM    7  C   UNL     1       8.925  14.134  23.245  0.00  0.00     0.073 A 
HETATM    8  N   UNL     1       8.181  14.923  24.166  0.00  0.00    -0.233 N 
HETATM    9  N   UNL     1       9.014  15.718  24.897  0.00  0.00    -0.179 NA
HETATM   10  C   UNL     1      10.240  15.441  24.500  0.00  0.00     0.141 A 
HETATM   11  C   UNL     1      10.255  14.435  23.548  0.00  0.00     0.053 A 
BRANCH   8  12
HETATM   12  C   UNL     1       6.772  15.136  24.379  0.00  0.00     0.065 A 
HETATM   13  C   UNL     1       6.184  14.934  25.664  0.00  0.00    -0.033 A 
HETATM   14  C   UNL     1       6.904  14.354  26.859  0.00  0.00     0.050 C 
HETATM   15  C   UNL     1       4.839  15.297  25.870  0.00  0.00     0.009 A 
HETATM   16  C   UNL     1       4.064  15.806  24.833  0.00  0.00     0.001 A 
HETATM   17  C   UNL     1       4.625  15.967  23.574  0.00  0.00     0.002 A 
HETATM   18  C   UNL     1       5.972  15.658  23.353  0.00  0.00     0.032 A 
ENDBRANCH   8  12
ENDBRANCH   1   7
BRANCH   2  19
HETATM   19  O   UNL     1       8.878  14.732  20.339  0.00  0.00    -0.360 OA
HETATM   20  H   UNL     1       8.576  15.419  20.956  0.00  0.00     0.217 HD
ENDBRANCH   2  19
BRANCH   6  21
HETATM   21  C   UNL     1       6.502   9.877  21.930  0.00  0.00     0.256 C 
HETATM   22  O   UNL     1       7.031   8.788  22.169  0.00  0.00    -0.267 OA
HETATM   23  N   UNL     1       5.106   9.984  21.903  0.00  0.00    -0.346 N 
HETATM   24  C   UNL     1       4.334  11.194  21.678  0.00  0.00     0.153 C 
BRANCH  23  25
HETATM   25  C   UNL     1       4.335   8.735  21.960  0.00  0.00     0.190 C 
BRANCH  25  26
HETATM   26  C   UNL     1       4.397   7.962  20.686  0.00  0.00     0.070 A 
HETATM   27  O   UNL     1       4.411   8.696  19.530  0.00  0.00    -0.325 OA
HETATM   28  C   UNL     1       4.579   7.822  18.502  0.00  0.00     0.142 A 
HETATM   29  C   UNL     1       4.666   6.533  18.975  0.00  0.00     0.027 A 
HETATM   30  C   UNL     1       4.549   6.623  20.385  0.00  0.00     0.036 A 
ENDBRANCH  25  26
ENDBRANCH  23  25
ENDBRANCH   6  21
BRANCH   4  31
HETATM   31  O   UNL     1       6.997  10.621  19.184  0.00  0.00    -0.360 OA
HETATM   32  H   UNL     1       6.389  11.133  18.624  0.00  0.00     0.217 HD
ENDBRANCH   4  31
TORSDOF 7
ENDMDL
MODEL 2
REMARK VINA RESULT:    -8.036      3.546      4.667
REMARK INTER + INTRA:         -12.439
REMARK INTER:                 -10.861
REMARK INTRA:                  -1.578
REMARK UNBOUND:                -1.584
REMARK  7 active torsions:
REMARK  status: ('A' for Active; 'I' for Inactive)
REMARK    1  A    between atoms: C_7  and  N_8 
REMARK    2  A    between atoms: C_12  and  C_13 
REMARK    3  A    between atoms: C_14  and  O_15 
REMARK    4  A    between atoms: C_17  and  O_18 
REMARK    5  A    between atoms: C_20  and  C_21 
REMARK       I    between atoms: C_21  and  N_23 
REMARK    6  A    between atoms: N_23  and  C_25 
REMARK    7  A    between atoms: C_25  and  C_26 
ROOT
HETATM    1  C   UNL     1       6.506  11.529  24.128  0.00  0.00     0.027 A 
HETATM    2  C   UNL     1       6.613  11.314  22.736  0.00  0.00     0.081 A 
HETATM    3  C   UNL     1       5.781  10.427  22.054  0.00  0.00     0.075 A 
HETATM    4  C   UNL     1       4.749   9.786  22.727  0.00  0.00     0.084 A 
HETATM    5  C   UNL     1       5.513  10.772  24.798  0.00  0.00     0.036 A 
HETATM    6  C   UNL     1       4.575   9.960  24.114  0.00  0.00     0.066 A 
ENDROOT
BRANCH   1   7
HETATM    7  C   UNL     1       7.391  12.506  24.834  0.00  0.00     0.073 A 
HETATM    8  N   UNL     1       7.155  13.852  25.232  0.00  0.00    -0.233 N 
HETATM    9  N   UNL     1       8.277  14.387  25.793  0.00  0.00    -0.179 NA
HETATM   10  C   UNL     1       9.188  13.435  25.793  0.00  0.00     0.141 A 
HETATM   11  C   UNL     1       8.687  12.247  25.286  0.00  0.00     0.053 A 
BRANCH   8  12
HETATM   12  C   UNL     1       6.054  14.763  25.050  0.00  0.00     0.065 A 
HETATM   13  C   UNL     1       5.798  15.363  23.781  0.00  0.00    -0.033 A 
HETATM   14  C   UNL     1       6.698  15.240  22.573  0.00  0.00     0.050 C 
HETATM   15  C   UNL     1       4.627  16.126  23.603  0.00  0.00     0.009 A 
HETATM   16  C   UNL     1       3.742  16.339  24.655  0.00  0.00     0.001 A 
HETATM   17  C   UNL     1       4.010  15.787  25.900  0.00  0.00     0.002 A 
HETATM   18  C   UNL     1       5.142  14.986  26.092  0.00  0.00     0.032 A 
ENDBRANCH   8  12
ENDBRANCH   1   7
BRANCH   2  19
HETATM   19  O   UNL     1       7.501  11.970  21.918  0.00  0.00    -0.360 OA
HETATM   20  H   UNL     1       7.055  12.159  21.076  0.00  0.00     0.217 HD
ENDBRANCH   2  19
BRANCH   6  21
HETATM   21  C   UNL     1       3.253   9.574  24.739  0.00  0.00     0.256 C 
HETATM   22  O   UNL     1       3.160   8.416  25.157  0.00  0.00    -0.267 OA
HETATM   23  N   UNL     1       2.130  10.410  24.743  0.00  0.00    -0.346 N 
HETATM   24  C   UNL     1       2.082  11.800  24.325  0.00  0.00     0.153 C 
BRANCH  23  25
HETATM   25  C   UNL     1       0.835   9.793  25.058  0.00  0.00     0.190 C 
BRANCH  25  26
HETATM   26  C   UNL     1      -0.317  10.698  24.776  0.00  0.00     0.070 A 
HETATM   27  O   UNL     1      -0.937  10.535  23.567  0.00  0.00    -0.325 OA
HETATM   28  C   UNL     1      -2.012  11.367  23.551  0.00  0.00     0.142 A 
HETATM   29  C   UNL     1      -2.092  12.072  24.730  0.00  0.00     0.027 A 
HETATM   30  C   UNL     1      -0.998  11.640  25.522  0.00  0.00     0.036 A 
ENDBRANCH  25  26
ENDBRANCH  23  25
ENDBRANCH   6  21
BRANCH   4  31
HETATM   31  O   UNL     1       3.920   8.980  21.993  0.00  0.00    -0.360 OA
HETATM   32  H   UNL     1       4.435   8.495  21.326  0.00  0.00     0.217 HD
ENDBRANCH   4  31
TORSDOF 7
ENDMDL
MODEL 3
REMARK VINA RESULT:    -8.028      1.946      2.922
REMARK INTER + INTRA:         -12.429
REMARK INTER:                 -11.260
REMARK INTRA:                  -1.169
REMARK UNBOUND:                -1.584
REMARK  7 active torsions:
REMARK  status: ('A' for Active; 'I' for Inactive)
REMARK    1  A    between atoms: C_7  and  N_8 
REMARK    2  A    between atoms: C_12  and  C_13 
REMARK    3  A    between atoms: C_14  and  O_15 
REMARK    4  A    between atoms: C_17  and  O_18 
REMARK    5  A    between atoms: C_20  and  C_21 
REMARK       I    between atoms: C_21  and  N_23 
REMARK    6  A    between atoms: N_23  and  C_25 
REMARK    7  A    between atoms: C_25  and  C_26 
ROOT
HETATM    1  C   UNL     1       8.223  11.817  24.826  0.00  0.00     0.027 A 
HETATM    2  C   UNL     1       8.964  10.620  24.942  0.00  0.00     0.081 A 
HETATM    3  C   UNL     1       8.496   9.404  24.447  0.00  0.00     0.075 A 
HETATM    4  C   UNL     1       7.303   9.357  23.735  0.00  0.00     0.084 A 
HETATM    5  C   UNL     1       6.961  11.706  24.192  0.00  0.00     0.036 A 
HETATM    6  C   UNL     1       6.516  10.513  23.571  0.00  0.00     0.066 A 
ENDROOT
BRANCH   1   7
HETATM    7  C   UNL     1       8.758  13.116  25.339  0.00  0.00     0.073 A 
HETATM    8  N   UNL     1       8.145  14.396  25.440  0.00  0.00    -0.233 N 
HETATM    9  N   UNL     1       9.036  15.316  25.911  0.00  0.00    -0.179 NA
HETATM   10  C   UNL     1      10.161  14.667  26.138  0.00  0.00     0.141 A 
HETATM   11  C   UNL     1      10.032  13.313  25.876  0.00  0.00     0.053 A 
BRANCH   8  12
HETATM   12  C   UNL     1       6.865  14.919  25.037  0.00  0.00     0.065 A 
HETATM   13  C   UNL     1       6.599  15.245  23.673  0.00  0.00    -0.033 A 
HETATM   14  C   UNL     1       7.629  15.227  22.567  0.00  0.00     0.050 C 
HETATM   15  C   UNL     1       5.292  15.608  23.294  0.00  0.00     0.009 A 
HETATM   16  C   UNL     1       4.270  15.696  24.232  0.00  0.00     0.001 A 
HETATM   17  C   UNL     1       4.536  15.416  25.566  0.00  0.00     0.002 A 
HETATM   18  C   UNL     1       5.815  15.008  25.962  0.00  0.00     0.032 A 
ENDBRANCH   8  12
ENDBRANCH   1   7
BRANCH   2  19
HETATM   19  O   UNL     1      10.213  10.535  25.507  0.00  0.00    -0.360 OA
HETATM   20  H   UNL     1      10.508   9.611  25.455  0.00  0.00     0.217 HD
ENDBRANCH   2  19
BRANCH   6  21
HETATM   21  C   UNL     1       5.452  10.526  22.496  0.00  0.00     0.256 C 
HETATM   22  O   UNL     1       4.294  10.312  22.868  0.00  0.00    -0.267 OA
HETATM   23  N   UNL     1       5.737  10.636  21.130  0.00  0.00    -0.346 N 
HETATM   24  C   UNL     1       7.031  10.923  20.536  0.00  0.00     0.153 C 
BRANCH  23  25
HETATM   25  C   UNL     1       4.665  10.285  20.189  0.00  0.00     0.190 C 
BRANCH  25  26
HETATM   26  C   UNL     1       4.778   8.886  19.685  0.00  0.00     0.070 A 
HETATM   27  O   UNL     1       4.891   8.736  18.329  0.00  0.00    -0.325 OA
HETATM   28  C   UNL     1       5.090   7.413  18.087  0.00  0.00     0.142 A 
HETATM   29  C   UNL     1       5.100   6.703  19.266  0.00  0.00     0.027 A 
HETATM   30  C   UNL     1       4.899   7.655  20.298  0.00  0.00     0.036 A 
ENDBRANCH  25  26
ENDBRANCH  23  25
ENDBRANCH   6  21
BRANCH   4  31
HETATM   31  O   UNL     1       6.926   8.149  23.212  0.00  0.00    -0.360 OA
HETATM   32  H   UNL     1       6.079   8.240  22.743  0.00  0.00     0.217 HD
ENDBRANCH   4  31
TORSDOF 7
ENDMDL
MODEL 4
REMARK VINA RESULT:    -7.832      4.291      6.424
REMARK INTER + INTRA:         -12.164
REMARK INTER:                 -10.349
REMARK INTRA:                  -1.815
REMARK UNBOUND:                -1.584
REMARK  7 active torsions:
REMARK  status: ('A' for Active; 'I' for Inactive)
REMARK    1  A    between atoms: C_7  and  N_8 
REMARK    2  A    between atoms: C_12  and  C_13 
REMARK    3  A    between atoms: C_14  and  O_15 
REMARK    4  A    between atoms: C_17  and  O_18 
REMARK    5  A    between atoms: C_20  and  C_21 
REMARK       I    between atoms: C_21  and  N_23 
REMARK    6  A    between atoms: N_23  and  C_25 
REMARK    7  A    between atoms: C_25  and  C_26 
ROOT
HETATM    1  C   UNL     1       5.748  14.721  23.809  0.00  0.00     0.027 A 
HETATM    2  C   UNL     1       5.853  14.994  25.192  0.00  0.00     0.081 A 
HETATM    3  C   UNL     1       4.733  15.173  26.002  0.00  0.00     0.075 A 
HETATM    4  C   UNL     1       3.459  14.997  25.474  0.00  0.00     0.084 A 
HETATM    5  C   UNL     1       4.432  14.660  23.287  0.00  0.00     0.036 A 
HETATM    6  C   UNL     1       3.278  14.714  24.106  0.00  0.00     0.066 A 
ENDROOT
BRANCH   1   7
HETATM    7  C   UNL     1       6.963  14.505  22.965  0.00  0.00     0.073 A 
HETATM    8  N   UNL     1       7.791  13.359  22.807  0.00  0.00    -0.233 N 
HETATM    9  N   UNL     1       8.838  13.637  21.977  0.00  0.00    -0.179 NA
HETATM   10  C   UNL     1       8.686  14.886  21.587  0.00  0.00     0.141 A 
HETATM   11  C   UNL     1       7.526  15.445  22.098  0.00  0.00     0.053 A 
BRANCH   8  12
HETATM   12  C   UNL     1       7.815  12.058  23.426  0.00  0.00     0.065 A 
HETATM   13  C   UNL     1       6.914  11.031  23.014  0.00  0.00    -0.033 A 
HETATM   14  C   UNL     1       5.780  11.222  22.034  0.00  0.00     0.050 C 
HETATM   15  C   UNL     1       7.068   9.731  23.533  0.00  0.00     0.009 A 
HETATM   16  C   UNL     1       8.053   9.444  24.472  0.00  0.00     0.001 A 
HETATM   17  C   UNL     1       8.906  10.452  24.901  0.00  0.00     0.002 A 
HETATM   18  C   UNL     1       8.805  11.741  24.367  0.00  0.00     0.032 A 
ENDBRANCH   8  12
ENDBRANCH   1   7
BRANCH   2  19
HETATM   19  O   UNL     1       7.041  15.071  25.876  0.00  0.00    -0.360 OA
HETATM   20  H   UNL     1       6.857  15.419  26.764  0.00  0.00     0.217 HD
ENDBRANCH   2  19
BRANCH   6  21
HETATM   21  C   UNL     1       1.949  14.159  23.645  0.00  0.00     0.256 C 
HETATM   22  O   UNL     1       1.094  14.985  23.314  0.00  0.00    -0.267 OA
HETATM   23  N   UNL     1       1.620  12.799  23.703  0.00  0.00    -0.346 N 
HETATM   24  C   UNL     1       2.516  11.704  24.034  0.00  0.00     0.153 C 
BRANCH  23  25
HETATM   25  C   UNL     1       0.203  12.444  23.561  0.00  0.00     0.190 C 
BRANCH  25  26
HETATM   26  C   UNL     1      -0.368  11.847  24.803  0.00  0.00     0.070 A 
HETATM   27  O   UNL     1      -0.741  12.727  25.784  0.00  0.00    -0.325 OA
HETATM   28  C   UNL     1      -1.328  12.002  26.772  0.00  0.00     0.142 A 
HETATM   29  C   UNL     1      -1.335  10.664  26.449  0.00  0.00     0.027 A 
HETATM   30  C   UNL     1      -0.715  10.564  25.177  0.00  0.00     0.036 A 
ENDBRANCH  25  26
ENDBRANCH  23  25
ENDBRANCH   6  21
BRANCH   4  31
HETATM   31  O   UNL     1       2.398  15.117  26.332  0.00  0.00    -0.360 OA
HETATM   32  H   UNL     1       1.819  15.844  26.043  0.00  0.00     0.217 HD
ENDBRANCH   4  31
TORSDOF 7
ENDMDL
MODEL 5
REMARK VINA RESULT:    -7.813      1.718      2.482
REMARK INTER + INTRA:         -12.137
REMARK INTER:                 -10.542
REMARK INTRA:                  -1.596
REMARK UNBOUND:                -1.584
REMARK  7 active torsions:
REMARK  status: ('A' for Active; 'I' for Inactive)
REMARK    1  A    between atoms: C_7  and  N_8 
REMARK    2  A    between atoms: C_12  and  C_13 
REMARK    3  A    between atoms: C_14  and  O_15 
REMARK    4  A    between atoms: C_17  and  O_18 
REMARK    5  A    between atoms: C_20  and  C_21 
REMARK       I    between atoms: C_21  and  N_23 
REMARK    6  A    between atoms: N_23  and  C_25 
REMARK    7  A    between atoms: C_25  and  C_26 
ROOT
HETATM    1  C   UNL     1       8.301  12.869  22.246  0.00  0.00     0.027 A 
HETATM    2  C   UNL     1       8.249  13.158  20.864  0.00  0.00     0.081 A 
HETATM    3  C   UNL     1       7.741  12.253  19.933  0.00  0.00     0.075 A 
HETATM    4  C   UNL     1       7.180  11.057  20.363  0.00  0.00     0.084 A 
HETATM    5  C   UNL     1       7.821  11.593  22.631  0.00  0.00     0.036 A 
HETATM    6  C   UNL     1       7.187  10.706  21.727  0.00  0.00     0.066 A 
ENDROOT
BRANCH   1   7
HETATM    7  C   UNL     1       8.825  13.865  23.230  0.00  0.00     0.073 A 
HETATM    8  N   UNL     1       8.140  14.746  24.113  0.00  0.00    -0.233 N 
HETATM    9  N   UNL     1       9.027  15.533  24.787  0.00  0.00    -0.179 NA
HETATM   10  C   UNL     1      10.230  15.165  24.392  0.00  0.00     0.141 A 
HETATM   11  C   UNL     1      10.174  14.108  23.498  0.00  0.00     0.053 A 
BRANCH   8  12
HETATM   12  C   UNL     1       6.748  15.049  24.332  0.00  0.00     0.065 A 
HETATM   13  C   UNL     1       6.160  14.914  25.625  0.00  0.00    -0.033 A 
HETATM   14  C   UNL     1       6.855  14.319  26.829  0.00  0.00     0.050 C 
HETATM   15  C   UNL     1       4.842  15.363  25.833  0.00  0.00     0.009 A 
HETATM   16  C   UNL     1       4.091  15.894  24.790  0.00  0.00     0.001 A 
HETATM   17  C   UNL     1       4.649  15.991  23.523  0.00  0.00     0.002 A 
HETATM   18  C   UNL     1       5.973  15.595  23.299  0.00  0.00     0.032 A 
ENDBRANCH   8  12
ENDBRANCH   1   7
BRANCH   2  19
HETATM   19  O   UNL     1       8.650  14.348  20.308  0.00  0.00    -0.360 OA
HETATM   20  H   UNL     1       9.001  14.911  21.017  0.00  0.00     0.217 HD
ENDBRANCH   2  19
BRANCH   6  21
HETATM   21  C   UNL     1       6.255   9.615  22.205  0.00  0.00     0.256 C 
HETATM   22  O   UNL     1       6.668   8.456  22.104  0.00  0.00    -0.267 OA
HETATM   23  N   UNL     1       4.939   9.853  22.621  0.00  0.00    -0.346 N 
HETATM   24  C   UNL     1       4.317  11.149  22.828  0.00  0.00     0.153 C 
BRANCH  23  25
HETATM   25  C   UNL     1       4.045   8.692  22.720  0.00  0.00     0.190 C 
BRANCH  25  26
HETATM   26  C   UNL     1       3.650   8.389  24.126  0.00  0.00     0.070 A 
HETATM   27  O   UNL     1       2.333   8.586  24.444  0.00  0.00    -0.325 OA
HETATM   28  C   UNL     1       2.160   8.155  25.721  0.00  0.00     0.142 A 
HETATM   29  C   UNL     1       3.346   7.688  26.238  0.00  0.00     0.027 A 
HETATM   30  C   UNL     1       4.309   7.839  25.208  0.00  0.00     0.036 A 
ENDBRANCH  25  26
ENDBRANCH  23  25
ENDBRANCH   6  21
BRANCH   4  31
HETATM   31  O   UNL     1       6.633  10.237  19.411  0.00  0.00    -0.360 OA
HETATM   32  H   UNL     1       5.664  10.229  19.498  0.00  0.00     0.217 HD
ENDBRANCH   4  31
TORSDOF 7
ENDMDL
MODEL 6
REMARK VINA RESULT:    -7.770      2.684      4.103
REMARK INTER + INTRA:         -12.079
REMARK INTER:                 -10.136
REMARK INTRA:                  -1.943
REMARK UNBOUND:                -1.584
REMARK  7 active torsions:
REMARK  status: ('A' for Active; 'I' for Inactive)
REMARK    1  A    between atoms: C_7  and  N_8 
REMARK    2  A    between atoms: C_12  and  C_13 
REMARK    3  A    between atoms: C_14  and  O_15 
REMARK    4  A    between atoms: C_17  and  O_18 
REMARK    5  A    between atoms: C_20  and  C_21 
REMARK       I    between atoms: C_21  and  N_23 
REMARK    6  A    between atoms: N_23  and  C_25 
REMARK    7  A    between atoms: C_25  and  C_26 
ROOT
HETATM    1  C   UNL     1       7.869  12.012  24.118  0.00  0.00     0.027 A 
HETATM    2  C   UNL     1       8.645  11.551  23.032  0.00  0.00     0.081 A 
HETATM    3  C   UNL     1       8.210  10.533  22.185  0.00  0.00     0.075 A 
HETATM    4  C   UNL     1       6.937   9.998  22.341  0.00  0.00     0.084 A 
HETATM    5  C   UNL     1       6.624  11.363  24.310  0.00  0.00     0.036 A 
HETATM    6  C   UNL     1       6.103  10.416  23.395  0.00  0.00     0.066 A 
ENDROOT
BRANCH   1   7
HETATM    7  C   UNL     1       8.344  13.125  24.998  0.00  0.00     0.073 A 
HETATM    8  N   UNL     1       7.719  14.351  25.361  0.00  0.00    -0.233 N 
HETATM    9  N   UNL     1       8.554  15.100  26.138  0.00  0.00    -0.179 NA
HETATM   10  C   UNL     1       9.653  14.390  26.301  0.00  0.00     0.141 A 
HETATM   11  C   UNL     1       9.556  13.150  25.690  0.00  0.00     0.053 A 
BRANCH   8  12
HETATM   12  C   UNL     1       6.484  14.988  24.981  0.00  0.00     0.065 A 
HETATM   13  C   UNL     1       6.221  15.328  23.620  0.00  0.00    -0.033 A 
HETATM   14  C   UNL     1       7.220  15.206  22.493  0.00  0.00     0.050 C 
HETATM   15  C   UNL     1       4.945  15.808  23.265  0.00  0.00     0.009 A 
HETATM   16  C   UNL     1       3.956  15.997  24.224  0.00  0.00     0.001 A 
HETATM   17  C   UNL     1       4.224  15.702  25.554  0.00  0.00     0.002 A 
HETATM   18  C   UNL     1       5.467  15.180  25.927  0.00  0.00     0.032 A 
ENDBRANCH   8  12
ENDBRANCH   1   7
BRANCH   2  19
HETATM   19  O   UNL     1       9.867  12.071  22.680  0.00  0.00    -0.360 OA
HETATM   20  H   UNL     1       9.846  12.278  21.731  0.00  0.00     0.217 HD
ENDBRANCH   2  19
BRANCH   6  21
HETATM   21  C   UNL     1       4.623  10.115  23.320  0.00  0.00     0.256 C 
HETATM   22  O   UNL     1       4.112  10.151  22.196  0.00  0.00    -0.267 OA
HETATM   23  N   UNL     1       3.815   9.932  24.448  0.00  0.00    -0.346 N 
HETATM   24  C   UNL     1       4.262   9.827  25.826  0.00  0.00     0.153 C 
BRANCH  23  25
HETATM   25  C   UNL     1       2.361   9.997  24.251  0.00  0.00     0.190 C 
BRANCH  25  26
HETATM   26  C   UNL     1       1.808  11.361  24.496  0.00  0.00     0.070 A 
HETATM   27  O   UNL     1       0.483  11.429  24.833  0.00  0.00    -0.325 OA
HETATM   28  C   UNL     1       0.207  12.729  25.118  0.00  0.00     0.142 A 
HETATM   29  C   UNL     1       1.332  13.506  24.962  0.00  0.00     0.027 A 
HETATM   30  C   UNL     1       2.367  12.622  24.561  0.00  0.00     0.036 A 
ENDBRANCH  25  26
ENDBRANCH  23  25
ENDBRANCH   6  21
BRANCH   4  31
HETATM   31  O   UNL     1       6.536   9.050  21.437  0.00  0.00    -0.360 OA
HETATM   32  H   UNL     1       7.249   8.877  20.799  0.00  0.00     0.217 HD
ENDBRANCH   4  31
TORSDOF 7
ENDMDL
MODEL 7
REMARK VINA RESULT:    -7.658      2.820      5.810
REMARK INTER + INTRA:         -11.929
REMARK INTER:                 -10.344
REMARK INTRA:                  -1.584
REMARK UNBOUND:                -1.584
REMARK  7 active torsions:
REMARK  status: ('A' for Active; 'I' for Inactive)
REMARK    1  A    between atoms: C_7  and  N_8 
REMARK    2  A    between atoms: C_12  and  C_13 
REMARK    3  A    between atoms: C_14  and  O_15 
REMARK    4  A    between atoms: C_17  and  O_18 
REMARK    5  A    between atoms: C_20  and  C_21 
REMARK       I    between atoms: C_21  and  N_23 
REMARK    6  A    between atoms: N_23  and  C_25 
REMARK    7  A    between atoms: C_25  and  C_26 
ROOT
HETATM    1  C   UNL     1       8.056  11.461  22.952  0.00  0.00     0.027 A 
HETATM    2  C   UNL     1       7.882  10.880  21.676  0.00  0.00     0.081 A 
HETATM    3  C   UNL     1       6.625  10.726  21.093  0.00  0.00     0.075 A 
HETATM    4  C   UNL     1       5.498  11.232  21.730  0.00  0.00     0.084 A 
HETATM    5  C   UNL     1       6.871  11.861  23.618  0.00  0.00     0.036 A 
HETATM    6  C   UNL     1       5.596  11.832  23.001  0.00  0.00     0.066 A 
ENDROOT
BRANCH   1   7
HETATM    7  C   UNL     1       9.416  11.641  23.546  0.00  0.00     0.073 A 
HETATM    8  N   UNL     1      10.283  12.770  23.556  0.00  0.00    -0.233 N 
HETATM    9  N   UNL     1      11.465  12.459  24.161  0.00  0.00    -0.179 NA
HETATM   10  C   UNL     1      11.367  11.206  24.556  0.00  0.00     0.141 A 
HETATM   11  C   UNL     1      10.118  10.676  24.272  0.00  0.00     0.053 A 
BRANCH   8  12
HETATM   12  C   UNL     1      10.211  14.081  22.963  0.00  0.00     0.065 A 
HETATM   13  C   UNL     1      10.026  15.244  23.770  0.00  0.00    -0.033 A 
HETATM   14  C   UNL     1       9.741  15.225  25.254  0.00  0.00     0.050 C 
HETATM   15  C   UNL     1      10.114  16.517  23.174  0.00  0.00     0.009 A 
HETATM   16  C   UNL     1      10.334  16.657  21.808  0.00  0.00     0.001 A 
HETATM   17  C   UNL     1      10.478  15.526  21.017  0.00  0.00     0.002 A 
HETATM   18  C   UNL     1      10.441  14.250  21.590  0.00  0.00     0.032 A 
ENDBRANCH   8  12
ENDBRANCH   1   7
BRANCH   2  19
HETATM   19  O   UNL     1       8.912  10.451  20.876  0.00  0.00    -0.360 OA
HETATM   20  H   UNL     1       8.709  10.701  19.959  0.00  0.00     0.217 HD
ENDBRANCH   2  19
BRANCH   6  21
HETATM   21  C   UNL     1       4.456  12.697  23.490  0.00  0.00     0.256 C 
HETATM   22  O   UNL     1       3.421  12.108  23.816  0.00  0.00    -0.267 OA
HETATM   23  N   UNL     1       4.484  14.096  23.464  0.00  0.00    -0.346 N 
HETATM   24  C   UNL     1       5.627  14.934  23.144  0.00  0.00     0.153 C 
BRANCH  23  25
HETATM   25  C   UNL     1       3.205  14.797  23.631  0.00  0.00     0.190 C 
BRANCH  25  26
HETATM   26  C   UNL     1       2.975  15.247  25.035  0.00  0.00     0.070 A 
HETATM   27  O   UNL     1       2.066  14.527  25.763  0.00  0.00    -0.325 OA
HETATM   28  C   UNL     1       2.083  15.022  27.028  0.00  0.00     0.142 A 
HETATM   29  C   UNL     1       2.983  16.059  27.129  0.00  0.00     0.027 A 
HETATM   30  C   UNL     1       3.559  16.204  25.841  0.00  0.00     0.036 A 
ENDBRANCH  25  26
ENDBRANCH  23  25
ENDBRANCH   6  21
BRANCH   4  31
HETATM   31  O   UNL     1       4.298  11.114  21.080  0.00  0.00    -0.360 OA
HETATM   32  H   UNL     1       4.446  10.832  20.161  0.00  0.00     0.217 HD
ENDBRANCH   4  31
TORSDOF 7
ENDMDL
MODEL 8
REMARK VINA RESULT:    -7.647      3.931      6.104
REMARK INTER + INTRA:         -11.914
REMARK INTER:                 -10.550
REMARK INTRA:                  -1.364
REMARK UNBOUND:                -1.584
REMARK  7 active torsions:
REMARK  status: ('A' for Active; 'I' for Inactive)
REMARK    1  A    between atoms: C_7  and  N_8 
REMARK    2  A    between atoms: C_12  and  C_13 
REMARK    3  A    between atoms: C_14  and  O_15 
REMARK    4  A    between atoms: C_17  and  O_18 
REMARK    5  A    between atoms: C_20  and  C_21 
REMARK       I    between atoms: C_21  and  N_23 
REMARK    6  A    between atoms: N_23  and  C_25 
REMARK    7  A    between atoms: C_25  and  C_26 
ROOT
HETATM    1  C   UNL     1       6.413  13.445  22.169  0.00  0.00     0.027 A 
HETATM    2  C   UNL     1       6.507  14.798  22.566  0.00  0.00     0.081 A 
HETATM    3  C   UNL     1       5.507  15.427  23.306  0.00  0.00     0.075 A 
HETATM    4  C   UNL     1       4.413  14.698  23.756  0.00  0.00     0.084 A 
HETATM    5  C   UNL     1       5.229  12.767  22.552  0.00  0.00     0.036 A 
HETATM    6  C   UNL     1       4.258  13.342  23.407  0.00  0.00     0.066 A 
ENDROOT
BRANCH   1   7
HETATM    7  C   UNL     1       7.510  12.783  21.398  0.00  0.00     0.073 A 
HETATM    8  N   UNL     1       8.231  11.583  21.656  0.00  0.00    -0.233 N 
HETATM    9  N   UNL     1       9.199  11.396  20.713  0.00  0.00    -0.179 NA
HETATM   10  C   UNL     1       9.096  12.400  19.865  0.00  0.00     0.141 A 
HETATM   11  C   UNL     1       8.042  13.239  20.190  0.00  0.00     0.053 A 
BRANCH   8  12
HETATM   12  C   UNL     1       8.228  10.636  22.742  0.00  0.00     0.065 A 
HETATM   13  C   UNL     1       7.311   9.543  22.761  0.00  0.00    -0.033 A 
HETATM   14  C   UNL     1       6.185   9.345  21.772  0.00  0.00     0.050 C 
HETATM   15  C   UNL     1       7.438   8.555  23.757  0.00  0.00     0.009 A 
HETATM   16  C   UNL     1       8.412   8.651  24.744  0.00  0.00     0.001 A 
HETATM   17  C   UNL     1       9.281   9.733  24.747  0.00  0.00     0.002 A 
HETATM   18  C   UNL     1       9.207  10.705  23.743  0.00  0.00     0.032 A 
ENDBRANCH   8  12
ENDBRANCH   1   7
BRANCH   2  19
HETATM   19  O   UNL     1       7.585  15.607  22.304  0.00  0.00    -0.360 OA
HETATM   20  H   UNL     1       7.650  15.723  21.342  0.00  0.00     0.217 HD
ENDBRANCH   2  19
BRANCH   6  21
HETATM   21  C   UNL     1       3.294  12.489  24.201  0.00  0.00     0.256 C 
HETATM   22  O   UNL     1       3.785  11.791  25.094  0.00  0.00    -0.267 OA
HETATM   23  N   UNL     1       1.935  12.368  23.889  0.00  0.00    -0.346 N 
HETATM   24  C   UNL     1       1.200  13.139  22.901  0.00  0.00     0.153 C 
BRANCH  23  25
HETATM   25  C   UNL     1       1.199  11.257  24.507  0.00  0.00     0.190 C 
BRANCH  25  26
HETATM   26  C   UNL     1      -0.272  11.499  24.557  0.00  0.00     0.070 A 
HETATM   27  O   UNL     1      -1.020  10.898  23.580  0.00  0.00    -0.325 OA
HETATM   28  C   UNL     1      -2.325  11.149  23.864  0.00  0.00     0.142 A 
HETATM   29  C   UNL     1      -2.434  11.909  25.006  0.00  0.00     0.027 A 
HETATM   30  C   UNL     1      -1.107  12.135  25.454  0.00  0.00     0.036 A 
ENDBRANCH  25  26
ENDBRANCH  23  25
ENDBRANCH   6  21
BRANCH   4  31
HETATM   31  O   UNL     1       3.497  15.350  24.537  0.00  0.00    -0.360 OA
HETATM   32  H   UNL     1       3.516  14.991  25.441  0.00  0.00     0.217 HD
ENDBRANCH   4  31
TORSDOF 7
ENDMDL
MODEL 9
REMARK VINA RESULT:    -7.604      1.838      2.553
REMARK INTER + INTRA:         -11.855
REMARK INTER:                 -10.104
REMARK INTRA:                  -1.751
REMARK UNBOUND:                -1.584
REMARK  7 active torsions:
REMARK  status: ('A' for Active; 'I' for Inactive)
REMARK    1  A    between atoms: C_7  and  N_8 
REMARK    2  A    between atoms: C_12  and  C_13 
REMARK    3  A    between atoms: C_14  and  O_15 
REMARK    4  A    between atoms: C_17  and  O_18 
REMARK    5  A    between atoms: C_20  and  C_21 
REMARK       I    between atoms: C_21  and  N_23 
REMARK    6  A    between atoms: N_23  and  C_25 
REMARK    7  A    between atoms: C_25  and  C_26 
ROOT
HETATM    1  C   UNL     1       8.250  12.066  24.124  0.00  0.00     0.027 A 
HETATM    2  C   UNL     1       8.600  11.909  22.764  0.00  0.00     0.081 A 
HETATM    3  C   UNL     1       8.194  10.806  22.014  0.00  0.00     0.075 A 
HETATM    4  C   UNL     1       7.345   9.860  22.575  0.00  0.00     0.084 A 
HETATM    5  C   UNL     1       7.476  11.023  24.689  0.00  0.00     0.036 A 
HETATM    6  C   UNL     1       6.946   9.957  23.922  0.00  0.00     0.066 A 
ENDROOT
BRANCH   1   7
HETATM    7  C   UNL     1       8.674  13.271  24.902  0.00  0.00     0.073 A 
HETATM    8  N   UNL     1       7.953  14.445  25.260  0.00  0.00    -0.233 N 
HETATM    9  N   UNL     1       8.764  15.320  25.921  0.00  0.00    -0.179 NA
HETATM   10  C   UNL     1       9.943  14.739  26.019  0.00  0.00     0.141 A 
HETATM   11  C   UNL     1       9.931  13.463  25.480  0.00  0.00     0.053 A 
BRANCH   8  12
HETATM   12  C   UNL     1       6.628  14.926  24.962  0.00  0.00     0.065 A 
HETATM   13  C   UNL     1       6.260  15.292  23.632  0.00  0.00    -0.033 A 
HETATM   14  C   UNL     1       7.215  15.361  22.463  0.00  0.00     0.050 C 
HETATM   15  C   UNL     1       4.917  15.612  23.353  0.00  0.00     0.009 A 
HETATM   16  C   UNL     1       3.956  15.620  24.358  0.00  0.00     0.001 A 
HETATM   17  C   UNL     1       4.321  15.300  25.659  0.00  0.00     0.002 A 
HETATM   18  C   UNL     1       5.638  14.934  25.955  0.00  0.00     0.032 A 
ENDBRANCH   8  12
ENDBRANCH   1   7
BRANCH   2  19
HETATM   19  O   UNL     1       9.328  12.824  22.042  0.00  0.00    -0.360 OA
HETATM   20  H   UNL     1      10.270  12.619  22.156  0.00  0.00     0.217 HD
ENDBRANCH   2  19
BRANCH   6  21
HETATM   21  C   UNL     1       5.750   9.159  24.389  0.00  0.00     0.256 C 
HETATM   22  O   UNL     1       5.983   8.036  24.847  0.00  0.00    -0.267 OA
HETATM   23  N   UNL     1       4.426   9.577  24.208  0.00  0.00    -0.346 N 
HETATM   24  C   UNL     1       3.986  10.873  23.721  0.00  0.00     0.153 C 
BRANCH  23  25
HETATM   25  C   UNL     1       3.373   8.569  24.383  0.00  0.00     0.190 C 
BRANCH  25  26
HETATM   26  C   UNL     1       3.030   7.868  23.112  0.00  0.00     0.070 A 
HETATM   27  O   UNL     1       3.976   7.908  22.122  0.00  0.00    -0.325 OA
HETATM   28  C   UNL     1       3.524   7.130  21.104  0.00  0.00     0.142 A 
HETATM   29  C   UNL     1       2.296   6.593  21.416  0.00  0.00     0.027 A 
HETATM   30  C   UNL     1       1.977   7.070  22.713  0.00  0.00     0.036 A 
ENDBRANCH  25  26
ENDBRANCH  23  25
ENDBRANCH   6  21
BRANCH   4  31
HETATM   31  O   UNL     1       6.922   8.835  21.771  0.00  0.00    -0.360 OA
HETATM   32  H   UNL     1       6.035   8.543  22.044  0.00  0.00     0.217 HD
ENDBRANCH   4  31
TORSDOF 7
ENDMDL
