MODEL 1
REMARK VINA RESULT:    -8.184      0.000      0.000
REMARK INTER + INTRA:          -9.300
REMARK INTER:                  -8.861
REMARK INTRA:                  -0.439
REMARK UNBOUND:                -0.159
REMARK  3 active torsions:
REMARK  status: ('A' for Active; 'I' for Inactive)
REMARK    1  A    between atoms: O_1  and  C_2 
REMARK    2  A    between atoms: C_9  and  N_10 
REMARK    3  A    between atoms: C_12  and  C_13 
REMARK       I    between atoms: C_13  and  N_15 
ROOT
HETATM    1  C   UNL     1       0.137   9.355  25.799  0.00  0.00     0.066 A 
HETATM    2  C   UNL     1      -0.842   9.968  25.026  0.00  0.00     0.053 A 
HETATM    3  C   UNL     1      -0.012   9.259  27.169  0.00  0.00     0.039 A 
HETATM    4  C   UNL     1      -1.161   9.775  27.768  0.00  0.00     0.035 A 
HETATM    5  C   UNL     1      -2.171  10.371  27.025  0.00  0.00     0.073 A 
HETATM    6  C   UNL     1      -2.021  10.483  25.636  0.00  0.00     0.030 A 
HETATM    7  N   UNL     1      -3.240  10.823  27.688  0.00  0.00    -0.218 NA
HETATM    8  C   UNL     1      -4.231  11.361  26.987  0.00  0.00     0.200 A 
HETATM    9  N   UNL     1      -4.210  11.543  25.677  0.00  0.00    -0.212 NA
HETATM   10  C   UNL     1      -3.098  11.136  25.017  0.00  0.00     0.140 A 
ENDROOT
BRANCH  10  11
HETATM   11  C   UNL     1      -3.078  11.527  23.550  0.00  0.00     0.273 C 
HETATM   12  O   UNL     1      -3.439  10.723  22.693  0.00  0.00    -0.266 OA
HETATM   13  N   UNL     1      -2.608  12.797  23.224  0.00  0.00    -0.342 N 
HETATM   14  C   UNL     1      -2.562  13.312  21.853  0.00  0.00     0.139 C 
HETATM   15  C   UNL     1      -2.091  13.767  24.165  0.00  0.00     0.161 C 
HETATM   16  C   UNL     1      -1.361  14.268  21.860  0.00  0.00     0.056 C 
HETATM   17  C   UNL     1      -1.299  14.692  23.309  0.00  0.00    -0.056 C 
HETATM   18  C   UNL     1      -1.338  15.469  20.947  0.00  0.00    -0.020 C 
HETATM   19  C   UNL     1      -0.685  15.816  23.711  0.00  0.00    -0.018 C 
HETATM   20  C   UNL     1      -0.095  16.767  22.705  0.00  0.00     0.054 C 
HETATM   21  C   UNL     1      -0.717  16.603  21.334  0.00  0.00    -0.026 C 
ENDBRANCH  10  11
BRANCH   8  22
HETATM   22  N   UNL     1      -5.321  11.840  27.677  0.00  0.00    -0.271 NA
HETATM   23  H   UNL     1      -5.052  12.132  28.607  0.00  0.00     0.127 HD
HETATM   24  H   UNL     1      -5.848  12.493  27.116  0.00  0.00     0.127 HD
ENDBRANCH   8  22
BRANCH   1  25
HETATM   25  O   UNL     1       1.262   8.824  25.245  0.00  0.00    -0.361 OA
HETATM   26  H   UNL     1       1.327   7.888  25.498  0.00  0.00     0.217 HD
ENDBRANCH   1  25
TORSDOF 3
ENDMDL
MODEL 2
REMARK VINA RESULT:    -8.083      2.784      4.006
REMARK INTER + INTRA:          -9.187
REMARK INTER:                  -8.727
REMARK INTRA:                  -0.460
REMARK UNBOUND:                -0.159
REMARK  3 active torsions:
REMARK  status: ('A' for Active; 'I' for Inactive)
REMARK    1  A    between atoms: O_1  and  C_2 
REMARK    2  A    between atoms: C_9  and  N_10 
REMARK    3  A    between atoms: C_12  and  C_13 
REMARK       I    between atoms: C_13  and  N_15 
ROOT
HETATM    1  C   UNL     1      -2.301  13.412  27.137  0.00  0.00     0.066 A 
HETATM    2  C   UNL     1      -1.451  13.491  26.041  0.00  0.00     0.053 A 
HETATM    3  C   UNL     1      -2.789  12.189  27.558  0.00  0.00     0.039 A 
HETATM    4  C   UNL     1      -2.410  11.033  26.876  0.00  0.00     0.035 A 
HETATM    5  C   UNL     1      -1.542  11.072  25.792  0.00  0.00     0.073 A 
HETATM    6  C   UNL     1      -1.054  12.309  25.353  0.00  0.00     0.030 A 
HETATM    7  N   UNL     1      -1.228   9.909  25.213  0.00  0.00    -0.218 NA
HETATM    8  C   UNL     1      -0.369   9.926  24.200  0.00  0.00     0.200 A 
HETATM    9  N   UNL     1       0.151  11.023  23.676  0.00  0.00    -0.212 NA
HETATM   10  C   UNL     1      -0.218  12.204  24.230  0.00  0.00     0.140 A 
ENDROOT
BRANCH  10  11
HETATM   11  C   UNL     1       0.286  13.420  23.475  0.00  0.00     0.273 C 
HETATM   12  O   UNL     1       1.399  13.881  23.719  0.00  0.00    -0.266 OA
HETATM   13  N   UNL     1      -0.567  14.001  22.539  0.00  0.00    -0.342 N 
HETATM   14  C   UNL     1      -0.197  15.159  21.720  0.00  0.00     0.139 C 
HETATM   15  C   UNL     1      -1.919  13.569  22.253  0.00  0.00     0.161 C 
HETATM   16  C   UNL     1      -1.530  15.884  21.486  0.00  0.00     0.056 C 
HETATM   17  C   UNL     1      -2.530  14.757  21.596  0.00  0.00    -0.056 C 
HETATM   18  C   UNL     1      -1.753  16.678  20.223  0.00  0.00    -0.020 C 
HETATM   19  C   UNL     1      -3.762  14.825  21.067  0.00  0.00    -0.018 C 
HETATM   20  C   UNL     1      -4.178  16.017  20.249  0.00  0.00     0.054 C 
HETATM   21  C   UNL     1      -2.987  16.763  19.684  0.00  0.00    -0.026 C 
ENDBRANCH  10  11
BRANCH   8  22
HETATM   22  N   UNL     1      -0.063   8.728  23.596  0.00  0.00    -0.271 NA
HETATM   23  H   UNL     1       0.848   8.774  23.159  0.00  0.00     0.127 HD
HETATM   24  H   UNL     1      -0.247   7.951  24.214  0.00  0.00     0.127 HD
ENDBRANCH   8  22
BRANCH   1  25
HETATM   25  O   UNL     1      -2.676  14.517  27.837  0.00  0.00    -0.361 OA
HETATM   26  H   UNL     1      -2.720  15.275  27.231  0.00  0.00     0.217 HD
ENDBRANCH   1  25
TORSDOF 3
ENDMDL
MODEL 3
REMARK VINA RESULT:    -8.000      1.922      2.652
REMARK INTER + INTRA:          -9.094
REMARK INTER:                  -8.676
REMARK INTRA:                  -0.418
REMARK UNBOUND:                -0.159
REMARK  3 active torsions:
REMARK  status: ('A' for Active; 'I' for Inactive)
REMARK    1  A    between atoms: O_1  and  C_2 
REMARK    2  A    between atoms: C_9  and  N_10 
REMARK    3  A    between atoms: C_12  and  C_13 
REMARK       I    between atoms: C_13  and  N_15 
ROOT
HETATM    1  C   UNL     1       0.452  10.396  25.319  0.00  0.00     0.066 A 
HETATM    2  C   UNL     1      -0.307  11.539  25.104  0.00  0.00     0.053 A 
HETATM    3  C   UNL     1      -0.030   9.374  26.116  0.00  0.00     0.039 A 
HETATM    4  C   UNL     1      -1.293   9.500  26.694  0.00  0.00     0.035 A 
HETATM    5  C   UNL     1      -2.090  10.616  26.480  0.00  0.00     0.073 A 
HETATM    6  C   UNL     1      -1.602  11.661  25.684  0.00  0.00     0.030 A 
HETATM    7  N   UNL     1      -3.291  10.638  27.067  0.00  0.00    -0.218 NA
HETATM    8  C   UNL     1      -4.080  11.681  26.841  0.00  0.00     0.200 A 
HETATM    9  N   UNL     1      -3.737  12.740  26.126  0.00  0.00    -0.212 NA
HETATM   10  C   UNL     1      -2.495  12.739  25.582  0.00  0.00     0.140 A 
ENDROOT
BRANCH  10  11
HETATM   11  C   UNL     1      -2.115  14.050  24.919  0.00  0.00     0.273 C 
HETATM   12  O   UNL     1      -1.563  14.935  25.572  0.00  0.00    -0.266 OA
HETATM   13  N   UNL     1      -2.445  14.217  23.576  0.00  0.00    -0.342 N 
HETATM   14  C   UNL     1      -2.111  15.419  22.807  0.00  0.00     0.139 C 
HETATM   15  C   UNL     1      -3.164  13.259  22.763  0.00  0.00     0.161 C 
HETATM   16  C   UNL     1      -3.243  15.520  21.774  0.00  0.00     0.056 C 
HETATM   17  C   UNL     1      -3.674  14.079  21.631  0.00  0.00    -0.056 C 
HETATM   18  C   UNL     1      -2.988  16.142  20.424  0.00  0.00    -0.020 C 
HETATM   19  C   UNL     1      -4.339  13.624  20.557  0.00  0.00    -0.018 C 
HETATM   20  C   UNL     1      -4.614  14.529  19.388  0.00  0.00     0.054 C 
HETATM   21  C   UNL     1      -3.656  15.701  19.337  0.00  0.00    -0.026 C 
ENDBRANCH  10  11
BRANCH   8  22
HETATM   22  N   UNL     1      -5.308  11.706  27.461  0.00  0.00    -0.271 NA
HETATM   23  H   UNL     1      -5.669  10.768  27.571  0.00  0.00     0.127 HD
HETATM   24  H   UNL     1      -5.292  12.299  28.278  0.00  0.00     0.127 HD
ENDBRANCH   8  22
BRANCH   1  25
HETATM   25  O   UNL     1       1.681  10.232  24.756  0.00  0.00    -0.361 OA
HETATM   26  H   UNL     1       2.178   9.571  25.266  0.00  0.00     0.217 HD
ENDBRANCH   1  25
TORSDOF 3
ENDMDL
MODEL 4
REMARK VINA RESULT:    -7.946      3.683      5.849
REMARK INTER + INTRA:          -9.035
REMARK INTER:                  -9.046
REMARK INTRA:                   0.012
REMARK UNBOUND:                -0.159
REMARK  3 active torsions:
REMARK  status: ('A' for Active; 'I' for Inactive)
REMARK    1  A    between atoms: O_1  and  C_2 
REMARK    2  A    between atoms: C_9  and  N_10 
REMARK    3  A    between atoms: C_12  and  C_13 
REMARK       I    between atoms: C_13  and  N_15 
ROOT
HETATM    1  C   UNL     1      -2.972  15.795  20.155  0.00  0.00     0.066 A 
HETATM    2  C   UNL     1      -2.455  15.618  21.433  0.00  0.00     0.053 A 
HETATM    3  C   UNL     1      -3.991  14.984  19.694  0.00  0.00     0.039 A 
HETATM    4  C   UNL     1      -4.504  13.992  20.529  0.00  0.00     0.035 A 
HETATM    5  C   UNL     1      -4.029  13.803  21.821  0.00  0.00     0.073 A 
HETATM    6  C   UNL     1      -2.987  14.613  22.290  0.00  0.00     0.030 A 
HETATM    7  N   UNL     1      -4.594  12.834  22.549  0.00  0.00    -0.218 NA
HETATM    8  C   UNL     1      -4.178  12.667  23.799  0.00  0.00     0.200 A 
HETATM    9  N   UNL     1      -3.192  13.349  24.359  0.00  0.00    -0.212 NA
HETATM   10  C   UNL     1      -2.584  14.290  23.595  0.00  0.00     0.140 A 
ENDROOT
BRANCH  10  11
HETATM   11  C   UNL     1      -1.362  14.913  24.246  0.00  0.00     0.273 C 
HETATM   12  O   UNL     1      -1.491  15.650  25.222  0.00  0.00    -0.266 OA
HETATM   13  N   UNL     1      -0.118  14.646  23.678  0.00  0.00    -0.342 N 
HETATM   14  C   UNL     1       1.142  15.158  24.222  0.00  0.00     0.139 C 
HETATM   15  C   UNL     1       0.108  13.857  22.486  0.00  0.00     0.161 C 
HETATM   16  C   UNL     1       2.040  15.312  22.986  0.00  0.00     0.056 C 
HETATM   17  C   UNL     1       1.465  14.280  22.044  0.00  0.00    -0.056 C 
HETATM   18  C   UNL     1       3.535  15.155  23.107  0.00  0.00    -0.020 C 
HETATM   19  C   UNL     1       2.161  13.767  21.016  0.00  0.00    -0.018 C 
HETATM   20  C   UNL     1       3.603  14.141  20.807  0.00  0.00     0.054 C 
HETATM   21  C   UNL     1       4.249  14.649  22.079  0.00  0.00    -0.026 C 
ENDBRANCH  10  11
BRANCH   8  22
HETATM   22  N   UNL     1      -4.750  11.657  24.538  0.00  0.00    -0.271 NA
HETATM   23  H   UNL     1      -5.580  11.308  24.079  0.00  0.00     0.127 HD
HETATM   24  H   UNL     1      -4.058  10.983  24.831  0.00  0.00     0.127 HD
ENDBRANCH   8  22
BRANCH   1  25
HETATM   25  O   UNL     1      -2.508  16.765  19.320  0.00  0.00    -0.361 OA
HETATM   26  H   UNL     1      -1.638  16.500  18.979  0.00  0.00     0.217 HD
ENDBRANCH   1  25
TORSDOF 3
ENDMDL
MODEL 5
REMARK VINA RESULT:    -7.836      2.761      2.983
REMARK INTER + INTRA:          -8.911
REMARK INTER:                  -8.464
REMARK INTRA:                  -0.447
REMARK UNBOUND:                -0.159
REMARK  3 active torsions:
REMARK  status: ('A' for Active; 'I' for Inactive)
REMARK    1  A    between atoms: O_1  and  C_2 
REMARK    2  A    between atoms: C_9  and  N_10 
REMARK    3  A    between atoms: C_12  and  C_13 
REMARK       I    between atoms: C_13  and  N_15 
ROOT
HETATM    1  C   UNL     1      -0.413   8.794  24.573  0.00  0.00     0.066 A 
HETATM    2  C   UNL     1      -0.682  10.026  23.989  0.00  0.00     0.053 A 
HETATM    3  C   UNL     1      -0.616   8.601  25.926  0.00  0.00     0.039 A 
HETATM    4  C   UNL     1      -1.104   9.654  26.699  0.00  0.00     0.035 A 
HETATM    5  C   UNL     1      -1.408  10.890  26.146  0.00  0.00     0.073 A 
HETATM    6  C   UNL     1      -1.193  11.096  24.777  0.00  0.00     0.030 A 
HETATM    7  N   UNL     1      -1.884  11.833  26.966  0.00  0.00    -0.218 NA
HETATM    8  C   UNL     1      -2.217  13.008  26.444  0.00  0.00     0.200 A 
HETATM    9  N   UNL     1      -2.048  13.339  25.175  0.00  0.00    -0.212 NA
HETATM   10  C   UNL     1      -1.510  12.399  24.359  0.00  0.00     0.140 A 
ENDROOT
BRANCH  10  11
HETATM   11  C   UNL     1      -1.195  12.905  22.964  0.00  0.00     0.273 C 
HETATM   12  O   UNL     1      -2.000  12.735  22.050  0.00  0.00    -0.266 OA
HETATM   13  N   UNL     1       0.036  13.524  22.761  0.00  0.00    -0.342 N 
HETATM   14  C   UNL     1       0.455  14.083  21.473  0.00  0.00     0.139 C 
HETATM   15  C   UNL     1       1.068  13.688  23.763  0.00  0.00     0.161 C 
HETATM   16  C   UNL     1       1.982  13.920  21.480  0.00  0.00     0.056 C 
HETATM   17  C   UNL     1       2.296  13.931  22.958  0.00  0.00    -0.056 C 
HETATM   18  C   UNL     1       2.856  14.899  20.737  0.00  0.00    -0.020 C 
HETATM   19  C   UNL     1       3.515  14.226  23.439  0.00  0.00    -0.018 C 
HETATM   20  C   UNL     1       4.620  14.652  22.511  0.00  0.00     0.054 C 
HETATM   21  C   UNL     1       4.086  15.199  21.204  0.00  0.00    -0.026 C 
ENDBRANCH  10  11
BRANCH   8  22
HETATM   22  N   UNL     1      -2.689  13.979  27.296  0.00  0.00    -0.271 NA
HETATM   23  H   UNL     1      -3.081  13.561  28.129  0.00  0.00     0.127 HD
HETATM   24  H   UNL     1      -2.012  14.718  27.417  0.00  0.00     0.127 HD
ENDBRANCH   8  22
BRANCH   1  25
HETATM   25  O   UNL     1       0.047   7.739  23.846  0.00  0.00    -0.361 OA
HETATM   26  H   UNL     1       0.779   8.039  23.281  0.00  0.00     0.217 HD
ENDBRANCH   1  25
TORSDOF 3
ENDMDL
MODEL 6
REMARK VINA RESULT:    -7.795      3.077      4.450
REMARK INTER + INTRA:          -8.866
REMARK INTER:                  -8.427
REMARK INTRA:                  -0.439
REMARK UNBOUND:                -0.159
REMARK  3 active torsions:
REMARK  status: ('A' for Active; 'I' for Inactive)
REMARK    1  A    between atoms: O_1  and  C_2 
REMARK    2  A    between atoms: C_9  and  N_10 
REMARK    3  A    between atoms: C_12  and  C_13 
REMARK       I    between atoms: C_13  and  N_15 
ROOT
HETATM    1  C   UNL     1      -2.608  11.522  22.422  0.00  0.00     0.066 A 
HETATM    2  C   UNL     1      -2.164  12.824  22.614  0.00  0.00     0.053 A 
HETATM    3  C   UNL     1      -3.003  10.750  23.498  0.00  0.00     0.039 A 
HETATM    4  C   UNL     1      -2.961  11.297  24.780  0.00  0.00     0.035 A 
HETATM    5  C   UNL     1      -2.547  12.603  25.008  0.00  0.00     0.073 A 
HETATM    6  C   UNL     1      -2.133  13.386  23.922  0.00  0.00     0.030 A 
HETATM    7  N   UNL     1      -2.554  13.041  26.271  0.00  0.00    -0.218 NA
HETATM    8  C   UNL     1      -2.197  14.299  26.500  0.00  0.00     0.200 A 
HETATM    9  N   UNL     1      -1.769  15.138  25.571  0.00  0.00    -0.212 NA
HETATM   10  C   UNL     1      -1.708  14.670  24.300  0.00  0.00     0.140 A 
ENDROOT
BRANCH  10  11
HETATM   11  C   UNL     1      -1.054  15.630  23.323  0.00  0.00     0.273 C 
HETATM   12  O   UNL     1      -1.748  16.371  22.629  0.00  0.00    -0.266 OA
HETATM   13  N   UNL     1       0.335  15.608  23.224  0.00  0.00    -0.342 N 
HETATM   14  C   UNL     1       1.094  16.501  22.344  0.00  0.00     0.139 C 
HETATM   15  C   UNL     1       1.214  14.712  23.945  0.00  0.00     0.161 C 
HETATM   16  C   UNL     1       2.334  15.677  21.967  0.00  0.00     0.056 C 
HETATM   17  C   UNL     1       2.472  14.748  23.150  0.00  0.00    -0.056 C 
HETATM   18  C   UNL     1       3.642  16.365  21.667  0.00  0.00    -0.020 C 
HETATM   19  C   UNL     1       3.626  14.137  23.463  0.00  0.00    -0.018 C 
HETATM   20  C   UNL     1       4.879  14.426  22.683  0.00  0.00     0.054 C 
HETATM   21  C   UNL     1       4.811  15.760  21.968  0.00  0.00    -0.026 C 
ENDBRANCH  10  11
BRANCH   8  22
HETATM   22  N   UNL     1      -2.190  14.739  27.804  0.00  0.00    -0.271 NA
HETATM   23  H   UNL     1      -1.452  14.285  28.326  0.00  0.00     0.127 HD
HETATM   24  H   UNL     1      -2.244  15.746  27.849  0.00  0.00     0.127 HD
ENDBRANCH   8  22
BRANCH   1  25
HETATM   25  O   UNL     1      -2.680  10.963  21.182  0.00  0.00    -0.361 OA
HETATM   26  H   UNL     1      -2.096  10.188  21.151  0.00  0.00     0.217 HD
ENDBRANCH   1  25
TORSDOF 3
ENDMDL
MODEL 7
REMARK VINA RESULT:    -7.694      2.468      6.526
REMARK INTER + INTRA:          -8.752
REMARK INTER:                  -8.292
REMARK INTRA:                  -0.460
REMARK UNBOUND:                -0.159
REMARK  3 active torsions:
REMARK  status: ('A' for Active; 'I' for Inactive)
REMARK    1  A    between atoms: O_1  and  C_2 
REMARK    2  A    between atoms: C_9  and  N_10 
REMARK    3  A    between atoms: C_12  and  C_13 
REMARK       I    between atoms: C_13  and  N_15 
ROOT
HETATM    1  C   UNL     1      -0.651  16.216  22.532  0.00  0.00     0.066 A 
HETATM    2  C   UNL     1      -1.545  15.299  23.071  0.00  0.00     0.053 A 
HETATM    3  C   UNL     1      -0.774  16.624  21.218  0.00  0.00     0.039 A 
HETATM    4  C   UNL     1      -1.812  16.113  20.440  0.00  0.00     0.035 A 
HETATM    5  C   UNL     1      -2.739  15.215  20.952  0.00  0.00     0.073 A 
HETATM    6  C   UNL     1      -2.613  14.787  22.280  0.00  0.00     0.030 A 
HETATM    7  N   UNL     1      -3.706  14.792  20.132  0.00  0.00    -0.218 NA
HETATM    8  C   UNL     1      -4.622  13.964  20.618  0.00  0.00     0.200 A 
HETATM    9  N   UNL     1      -4.611  13.469  21.844  0.00  0.00    -0.212 NA
HETATM   10  C   UNL     1      -3.593  13.855  22.654  0.00  0.00     0.140 A 
ENDROOT
BRANCH  10  11
HETATM   11  C   UNL     1      -3.555  13.123  23.983  0.00  0.00     0.273 C 
HETATM   12  O   UNL     1      -4.201  13.546  24.940  0.00  0.00    -0.266 OA
HETATM   13  N   UNL     1      -2.743  11.995  24.077  0.00  0.00    -0.342 N 
HETATM   14  C   UNL     1      -2.636  11.179  25.290  0.00  0.00     0.139 C 
HETATM   15  C   UNL     1      -1.893  11.482  23.025  0.00  0.00     0.161 C 
HETATM   16  C   UNL     1      -1.202  10.630  25.237  0.00  0.00     0.056 C 
HETATM   17  C   UNL     1      -0.916  10.627  23.754  0.00  0.00    -0.056 C 
HETATM   18  C   UNL     1      -0.877   9.291  25.850  0.00  0.00    -0.020 C 
HETATM   19  C   UNL     1       0.037   9.861  23.200  0.00  0.00    -0.018 C 
HETATM   20  C   UNL     1       0.818   8.887  24.039  0.00  0.00     0.054 C 
HETATM   21  C   UNL     1       0.084   8.513  25.310  0.00  0.00    -0.026 C 
ENDBRANCH  10  11
BRANCH   8  22
HETATM   22  N   UNL     1      -5.605  13.518  19.764  0.00  0.00    -0.271 NA
HETATM   23  H   UNL     1      -6.115  12.750  20.180  0.00  0.00     0.127 HD
HETATM   24  H   UNL     1      -6.142  14.289  19.393  0.00  0.00     0.127 HD
ENDBRANCH   8  22
BRANCH   1  25
HETATM   25  O   UNL     1       0.363  16.749  23.268  0.00  0.00    -0.361 OA
HETATM   26  H   UNL     1       0.080  16.814  24.195  0.00  0.00     0.217 HD
ENDBRANCH   1  25
TORSDOF 3
ENDMDL
MODEL 8
REMARK VINA RESULT:    -7.654      3.031      4.054
REMARK INTER + INTRA:          -8.708
REMARK INTER:                  -8.548
REMARK INTRA:                  -0.159
REMARK UNBOUND:                -0.159
REMARK  3 active torsions:
REMARK  status: ('A' for Active; 'I' for Inactive)
REMARK    1  A    between atoms: O_1  and  C_2 
REMARK    2  A    between atoms: C_9  and  N_10 
REMARK    3  A    between atoms: C_12  and  C_13 
REMARK       I    between atoms: C_13  and  N_15 
ROOT
HETATM    1  C   UNL     1      -3.778  11.933  25.918  0.00  0.00     0.066 A 
HETATM    2  C   UNL     1      -2.744  11.887  24.991  0.00  0.00     0.053 A 
HETATM    3  C   UNL     1      -3.671  11.261  27.121  0.00  0.00     0.039 A 
HETATM    4  C   UNL     1      -2.508  10.544  27.399  0.00  0.00     0.035 A 
HETATM    5  C   UNL     1      -1.444  10.497  26.509  0.00  0.00     0.073 A 
HETATM    6  C   UNL     1      -1.551  11.165  25.282  0.00  0.00     0.030 A 
HETATM    7  N   UNL     1      -0.366   9.794  26.871  0.00  0.00    -0.218 NA
HETATM    8  C   UNL     1       0.674   9.771  26.047  0.00  0.00     0.200 A 
HETATM    9  N   UNL     1       0.698  10.342  24.854  0.00  0.00    -0.212 NA
HETATM   10  C   UNL     1      -0.420  11.005  24.466  0.00  0.00     0.140 A 
ENDROOT
BRANCH  10  11
HETATM   11  C   UNL     1      -0.378  11.489  23.029  0.00  0.00     0.273 C 
HETATM   12  O   UNL     1      -1.057  10.930  22.169  0.00  0.00    -0.266 OA
HETATM   13  N   UNL     1       0.474  12.549  22.727  0.00  0.00    -0.342 N 
HETATM   14  C   UNL     1       0.590  13.134  21.388  0.00  0.00     0.139 C 
HETATM   15  C   UNL     1       1.362  13.204  23.663  0.00  0.00     0.161 C 
HETATM   16  C   UNL     1       2.044  13.625  21.326  0.00  0.00     0.056 C 
HETATM   17  C   UNL     1       2.357  13.877  22.783  0.00  0.00    -0.056 C 
HETATM   18  C   UNL     1       2.408  14.820  20.483  0.00  0.00    -0.020 C 
HETATM   19  C   UNL     1       3.349  14.690  23.182  0.00  0.00    -0.018 C 
HETATM   20  C   UNL     1       4.151  15.467  22.175  0.00  0.00     0.054 C 
HETATM   21  C   UNL     1       3.408  15.641  20.866  0.00  0.00    -0.026 C 
ENDBRANCH  10  11
BRANCH   8  22
HETATM   22  N   UNL     1       1.774   9.032  26.418  0.00  0.00    -0.271 NA
HETATM   23  H   UNL     1       2.315   9.527  27.113  0.00  0.00     0.127 HD
HETATM   24  H   UNL     1       1.519   8.075  26.616  0.00  0.00     0.127 HD
ENDBRANCH   8  22
BRANCH   1  25
HETATM   25  O   UNL     1      -4.920  12.638  25.687  0.00  0.00    -0.361 OA
HETATM   26  H   UNL     1      -5.519  12.101  25.144  0.00  0.00     0.217 HD
ENDBRANCH   1  25
TORSDOF 3
ENDMDL
MODEL 9
REMARK VINA RESULT:    -7.641      2.643      7.043
REMARK INTER + INTRA:          -8.693
REMARK INTER:                  -8.239
REMARK INTRA:                  -0.454
REMARK UNBOUND:                -0.159
REMARK  3 active torsions:
REMARK  status: ('A' for Active; 'I' for Inactive)
REMARK    1  A    between atoms: O_1  and  C_2 
REMARK    2  A    between atoms: C_9  and  N_10 
REMARK    3  A    between atoms: C_12  and  C_13 
REMARK       I    between atoms: C_13  and  N_15 
ROOT
HETATM    1  C   UNL     1      -4.168  14.112  20.057  0.00  0.00     0.066 A 
HETATM    2  C   UNL     1      -3.054  13.510  20.629  0.00  0.00     0.053 A 
HETATM    3  C   UNL     1      -4.177  15.471  19.803  0.00  0.00     0.039 A 
HETATM    4  C   UNL     1      -3.050  16.230  20.116  0.00  0.00     0.035 A 
HETATM    5  C   UNL     1      -1.909  15.658  20.664  0.00  0.00     0.073 A 
HETATM    6  C   UNL     1      -1.899  14.283  20.936  0.00  0.00     0.030 A 
HETATM    7  N   UNL     1      -0.875  16.466  20.917  0.00  0.00    -0.218 NA
HETATM    8  C   UNL     1       0.236  15.927  21.405  0.00  0.00     0.200 A 
HETATM    9  N   UNL     1       0.374  14.651  21.724  0.00  0.00    -0.212 NA
HETATM   10  C   UNL     1      -0.699  13.847  21.520  0.00  0.00     0.140 A 
ENDROOT
BRANCH  10  11
HETATM   11  C   UNL     1      -0.522  12.439  22.060  0.00  0.00     0.273 C 
HETATM   12  O   UNL     1      -0.111  11.544  21.325  0.00  0.00    -0.266 OA
HETATM   13  N   UNL     1      -0.875  12.206  23.387  0.00  0.00    -0.342 N 
HETATM   14  C   UNL     1      -0.728  10.903  24.043  0.00  0.00     0.139 C 
HETATM   15  C   UNL     1      -1.442  13.185  24.290  0.00  0.00     0.161 C 
HETATM   16  C   UNL     1      -1.863  10.883  25.077  0.00  0.00     0.056 C 
HETATM   17  C   UNL     1      -2.071  12.354  25.352  0.00  0.00    -0.056 C 
HETATM   18  C   UNL     1      -1.707  10.112  26.364  0.00  0.00    -0.020 C 
HETATM   19  C   UNL     1      -2.662  12.807  26.470  0.00  0.00    -0.018 C 
HETATM   20  C   UNL     1      -3.071  11.853  27.558  0.00  0.00     0.054 C 
HETATM   21  C   UNL     1      -2.301  10.550  27.493  0.00  0.00    -0.026 C 
ENDBRANCH  10  11
BRANCH   8  22
HETATM   22  N   UNL     1       1.292  16.767  21.680  0.00  0.00    -0.271 NA
HETATM   23  H   UNL     1       1.105  17.310  22.512  0.00  0.00     0.127 HD
HETATM   24  H   UNL     1       2.171  16.274  21.631  0.00  0.00     0.127 HD
ENDBRANCH   8  22
BRANCH   1  25
HETATM   25  O   UNL     1      -5.278  13.399  19.721  0.00  0.00    -0.361 OA
HETATM   26  H   UNL     1      -6.041  13.754  20.207  0.00  0.00     0.217 HD
ENDBRANCH   1  25
TORSDOF 3
ENDMDL
