MODEL 1
REMARK VINA RESULT:    -6.690      0.000      0.000
REMARK INTER + INTRA:          -9.656
REMARK INTER:                  -8.585
REMARK INTRA:                  -1.071
REMARK UNBOUND:                -1.011
REMARK  5 active torsions:
REMARK  status: ('A' for Active; 'I' for Inactive)
REMARK    1  A    between atoms: N8_1  and  C24_2 
REMARK    2  A    between atoms: N8_1  and  C7_8 
REMARK    3  A    between atoms: C2_13  and  N1_14 
REMARK    4  A    between atoms: N1_14  and  C17_15 
REMARK    5  A    between atoms: C14_16  and  C13_19 
ROOT
ATOM      1  C17 FTA A   1      -9.272  13.661  29.039  1.00  0.00     0.142 C 
ATOM      2  C14 FTA A   1      -8.283  12.902  29.551  1.00  0.00     0.158 C 
ATOM      3  C18 FTA A   1      -7.046  13.515  29.985  1.00  0.00     0.069 C 
ATOM      4  N21 FTA A   1      -6.085  14.136  30.239  1.00  0.00    -0.197 NA
ENDROOT
BRANCH   2   5
ATOM      5  C13 FTA A   1      -8.480  11.440  29.680  1.00  0.00     0.197 A 
ATOM      6  N15 FTA A   1      -7.478  10.472  29.683  1.00  0.00    -0.093 NA
ATOM      7  N19 FTA A   1      -8.095   9.232  29.778  1.00  0.00    -0.231 N 
ATOM      8  N20 FTA A   1      -9.470   9.410  29.832  1.00  0.00    -0.017 NA
ATOM      9  H15 FTA A   1      -7.609   8.323  29.804  1.00  0.00     0.200 HD
ATOM     10  N16 FTA A   1      -9.710  10.779  29.783  1.00  0.00    -0.090 NA
ENDBRANCH   2   5
BRANCH   1  11
ATOM     11  N1  FTA A   1      -9.792  13.332  27.840  1.00  0.00    -0.389 N 
ATOM     12  H11 FTA A   1     -10.769  13.005  27.818  1.00  0.00     0.159 HD
BRANCH  11  13
ATOM     13  C2  FTA A   1      -9.095  13.402  26.603  1.00  0.00     0.028 A 
ATOM     14  C4  FTA A   1      -8.183  12.426  26.210  1.00  0.00     0.031 A 
ATOM     15  C6  FTA A   1      -7.365  12.667  25.098  1.00  0.00     0.031 A 
ATOM     16  C7  FTA A   1      -7.434  13.855  24.373  1.00  0.00     0.032 A 
ATOM     17  C5  FTA A   1      -8.362  14.804  24.761  1.00  0.00     0.031 A 
ATOM     18  C3  FTA A   1      -9.173  14.589  25.869  1.00  0.00     0.031 A 
BRANCH  16  19
ATOM     19  N8  FTA A   1      -6.482  14.207  23.382  1.00  0.00    -0.356 N 
ATOM     20  H1  FTA A   1      -6.709  15.005  22.772  1.00  0.00     0.166 HD
BRANCH  19  21
ATOM     21  C24 FTA A   1      -5.235  13.548  23.162  1.00  0.00     0.032 A 
ATOM     22  C26 FTA A   1      -5.127  12.477  22.307  1.00  0.00     0.029 A 
ATOM     23  C28 FTA A   1      -3.937  11.776  22.269  1.00  0.00     0.002 A 
ATOM     24  C30 FTA A   1      -2.840  12.133  23.036  1.00  0.00     0.000 A 
ATOM     25  C29 FTA A   1      -2.922  13.221  23.864  1.00  0.00     0.002 A 
ATOM     26  C27 FTA A   1      -4.128  13.930  23.907  1.00  0.00     0.029 A 
ENDBRANCH  19  21
ENDBRANCH  16  19
ENDBRANCH  11  13
ENDBRANCH   1  11
TORSDOF 5
ENDMDL
MODEL 2
REMARK VINA RESULT:    -6.628      1.455      1.697
REMARK INTER + INTRA:          -9.577
REMARK INTER:                  -8.609
REMARK INTRA:                  -0.967
REMARK UNBOUND:                -1.011
REMARK  5 active torsions:
REMARK  status: ('A' for Active; 'I' for Inactive)
REMARK    1  A    between atoms: N8_1  and  C24_2 
REMARK    2  A    between atoms: N8_1  and  C7_8 
REMARK    3  A    between atoms: C2_13  and  N1_14 
REMARK    4  A    between atoms: N1_14  and  C17_15 
REMARK    5  A    between atoms: C14_16  and  C13_19 
ROOT
ATOM      1  C17 FTA A   1     -10.616  11.781  28.314  1.00  0.00     0.142 C 
ATOM      2  C14 FTA A   1      -9.962  11.670  29.488  1.00  0.00     0.158 C 
ATOM      3  C18 FTA A   1      -9.901  12.795  30.396  1.00  0.00     0.069 C 
ATOM      4  N21 FTA A   1      -9.884  13.799  31.001  1.00  0.00    -0.197 NA
ENDROOT
BRANCH   2   5
ATOM      5  C13 FTA A   1      -9.322  10.383  29.845  1.00  0.00     0.197 A 
ATOM      6  N15 FTA A   1      -7.987  10.043  29.637  1.00  0.00    -0.093 NA
ATOM      7  N19 FTA A   1      -7.816   8.735  30.072  1.00  0.00    -0.231 N 
ATOM      8  N20 FTA A   1      -9.027   8.252  30.547  1.00  0.00    -0.017 NA
ATOM      9  H15 FTA A   1      -6.932   8.208  30.047  1.00  0.00     0.200 HD
ATOM     10  N16 FTA A   1      -9.960   9.276  30.417  1.00  0.00    -0.090 NA
ENDBRANCH   2   5
BRANCH   1  11
ATOM     11  N1  FTA A   1      -9.974  11.452  27.177  1.00  0.00    -0.389 N 
ATOM     12  H11 FTA A   1     -10.032  10.472  26.865  1.00  0.00     0.159 HD
BRANCH  11  13
ATOM     13  C2  FTA A   1      -9.223  12.354  26.374  1.00  0.00     0.028 A 
ATOM     14  C4  FTA A   1      -9.716  12.867  25.177  1.00  0.00     0.031 A 
ATOM     15  C6  FTA A   1      -8.846  13.560  24.325  1.00  0.00     0.031 A 
ATOM     16  C7  FTA A   1      -7.502  13.752  24.636  1.00  0.00     0.032 A 
ATOM     17  C5  FTA A   1      -7.034  13.257  25.840  1.00  0.00     0.031 A 
ATOM     18  C3  FTA A   1      -7.877  12.555  26.692  1.00  0.00     0.031 A 
BRANCH  16  19
ATOM     19  N8  FTA A   1      -6.562  14.261  23.704  1.00  0.00    -0.356 N 
ATOM     20  H1  FTA A   1      -6.781  15.164  23.258  1.00  0.00     0.166 HD
BRANCH  19  21
ATOM     21  C24 FTA A   1      -5.338  13.627  23.334  1.00  0.00     0.032 A 
ATOM     22  C26 FTA A   1      -5.305  12.609  22.410  1.00  0.00     0.029 A 
ATOM     23  C28 FTA A   1      -4.120  11.922  22.224  1.00  0.00     0.002 A 
ATOM     24  C30 FTA A   1      -2.960  12.242  22.909  1.00  0.00     0.000 A 
ATOM     25  C29 FTA A   1      -2.971  13.279  23.804  1.00  0.00     0.002 A 
ATOM     26  C27 FTA A   1      -4.170  13.974  23.997  1.00  0.00     0.029 A 
ENDBRANCH  19  21
ENDBRANCH  16  19
ENDBRANCH  11  13
ENDBRANCH   1  11
TORSDOF 5
ENDMDL
MODEL 3
REMARK VINA RESULT:    -6.197      1.945      2.766
REMARK INTER + INTRA:          -9.019
REMARK INTER:                  -7.994
REMARK INTRA:                  -1.025
REMARK UNBOUND:                -1.011
REMARK  5 active torsions:
REMARK  status: ('A' for Active; 'I' for Inactive)
REMARK    1  A    between atoms: N8_1  and  C24_2 
REMARK    2  A    between atoms: N8_1  and  C7_8 
REMARK    3  A    between atoms: C2_13  and  N1_14 
REMARK    4  A    between atoms: N1_14  and  C17_15 
REMARK    5  A    between atoms: C14_16  and  C13_19 
ROOT
ATOM      1  C17 FTA A   1     -10.091  14.710  28.515  1.00  0.00     0.142 C 
ATOM      2  C14 FTA A   1      -9.024  15.492  28.772  1.00  0.00     0.158 C 
ATOM      3  C18 FTA A   1      -9.089  16.916  28.527  1.00  0.00     0.069 C 
ATOM      4  N21 FTA A   1      -9.266  18.036  28.228  1.00  0.00    -0.197 NA
ENDROOT
BRANCH   2   5
ATOM      5  C13 FTA A   1      -7.791  14.882  29.322  1.00  0.00     0.197 A 
ATOM      6  N15 FTA A   1      -7.709  13.683  30.025  1.00  0.00    -0.093 NA
ATOM      7  N19 FTA A   1      -6.383  13.505  30.396  1.00  0.00    -0.231 N 
ATOM      8  N20 FTA A   1      -5.634  14.579  29.937  1.00  0.00    -0.017 NA
ATOM      9  H15 FTA A   1      -6.013  12.704  30.928  1.00  0.00     0.200 HD
ATOM     10  N16 FTA A   1      -6.503  15.429  29.261  1.00  0.00    -0.090 NA
ENDBRANCH   2   5
BRANCH   1  11
ATOM     11  N1  FTA A   1      -9.931  13.625  27.732  1.00  0.00    -0.389 N 
ATOM     12  H11 FTA A   1     -10.407  12.758  28.018  1.00  0.00     0.159 HD
BRANCH  11  13
ATOM     13  C2  FTA A   1      -9.154  13.587  26.542  1.00  0.00     0.028 A 
ATOM     14  C4  FTA A   1      -8.047  12.753  26.406  1.00  0.00     0.031 A 
ATOM     15  C6  FTA A   1      -7.195  12.929  25.307  1.00  0.00     0.031 A 
ATOM     16  C7  FTA A   1      -7.418  13.912  24.347  1.00  0.00     0.032 A 
ATOM     17  C5  FTA A   1      -8.536  14.715  24.483  1.00  0.00     0.031 A 
ATOM     18  C3  FTA A   1      -9.386  14.566  25.572  1.00  0.00     0.031 A 
BRANCH  16  19
ATOM     19  N8  FTA A   1      -6.465  14.244  23.350  1.00  0.00    -0.356 N 
ATOM     20  H1  FTA A   1      -6.684  15.040  22.734  1.00  0.00     0.166 HD
BRANCH  19  21
ATOM     21  C24 FTA A   1      -5.228  13.566  23.130  1.00  0.00     0.032 A 
ATOM     22  C26 FTA A   1      -5.142  12.474  22.299  1.00  0.00     0.029 A 
ATOM     23  C28 FTA A   1      -3.959  11.761  22.264  1.00  0.00     0.002 A 
ATOM     24  C30 FTA A   1      -2.850  12.123  23.009  1.00  0.00     0.000 A 
ATOM     25  C29 FTA A   1      -2.910  13.232  23.811  1.00  0.00     0.002 A 
ATOM     26  C27 FTA A   1      -4.108  13.954  23.852  1.00  0.00     0.029 A 
ENDBRANCH  19  21
ENDBRANCH  16  19
ENDBRANCH  11  13
ENDBRANCH   1  11
TORSDOF 5
ENDMDL
MODEL 4
REMARK VINA RESULT:    -5.802      3.307      7.407
REMARK INTER + INTRA:          -8.509
REMARK INTER:                  -7.523
REMARK INTRA:                  -0.986
REMARK UNBOUND:                -1.011
REMARK  5 active torsions:
REMARK  status: ('A' for Active; 'I' for Inactive)
REMARK    1  A    between atoms: N8_1  and  C24_2 
REMARK    2  A    between atoms: N8_1  and  C7_8 
REMARK    3  A    between atoms: C2_13  and  N1_14 
REMARK    4  A    between atoms: N1_14  and  C17_15 
REMARK    5  A    between atoms: C14_16  and  C13_19 
ROOT
ATOM      1  C17 FTA A   1      -8.894  15.056  25.140  1.00  0.00     0.142 C 
ATOM      2  C14 FTA A   1      -9.710  15.158  24.073  1.00  0.00     0.158 C 
ATOM      3  C18 FTA A   1      -9.933  16.445  23.449  1.00  0.00     0.069 C 
ATOM      4  N21 FTA A   1     -10.064  17.551  23.084  1.00  0.00    -0.197 NA
ENDROOT
BRANCH   2   5
ATOM      5  C13 FTA A   1     -10.364  13.943  23.537  1.00  0.00     0.197 A 
ATOM      6  N15 FTA A   1     -11.113  13.022  24.267  1.00  0.00    -0.093 NA
ATOM      7  N19 FTA A   1     -11.502  12.014  23.394  1.00  0.00    -0.231 N 
ATOM      8  N20 FTA A   1     -11.006  12.291  22.129  1.00  0.00    -0.017 NA
ATOM      9  H15 FTA A   1     -12.070  11.192  23.646  1.00  0.00     0.200 HD
ATOM     10  N16 FTA A   1     -10.309  13.492  22.213  1.00  0.00    -0.090 NA
ENDBRANCH   2   5
BRANCH   1  11
ATOM     11  N1  FTA A   1      -9.352  14.458  26.257  1.00  0.00    -0.389 N 
ATOM     12  H11 FTA A   1     -10.261  14.774  26.627  1.00  0.00     0.159 HD
BRANCH  11  13
ATOM     13  C2  FTA A   1      -8.679  13.424  26.963  1.00  0.00     0.028 A 
ATOM     14  C4  FTA A   1      -8.352  12.210  26.366  1.00  0.00     0.031 A 
ATOM     15  C6  FTA A   1      -7.902  11.155  27.171  1.00  0.00     0.031 A 
ATOM     16  C7  FTA A   1      -7.773  11.281  28.552  1.00  0.00     0.032 A 
ATOM     17  C5  FTA A   1      -8.078  12.502  29.128  1.00  0.00     0.031 A 
ATOM     18  C3  FTA A   1      -8.539  13.556  28.348  1.00  0.00     0.031 A 
BRANCH  16  19
ATOM     19  N8  FTA A   1      -7.523  10.177  29.406  1.00  0.00    -0.356 N 
ATOM     20  H1  FTA A   1      -6.540   9.913  29.562  1.00  0.00     0.166 HD
BRANCH  19  21
ATOM     21  C24 FTA A   1      -8.523   9.400  30.066  1.00  0.00     0.032 A 
ATOM     22  C26 FTA A   1      -8.193   8.333  30.868  1.00  0.00     0.029 A 
ATOM     23  C28 FTA A   1      -9.206   7.519  31.338  1.00  0.00     0.002 A 
ATOM     24  C30 FTA A   1     -10.541   7.757  31.056  1.00  0.00     0.000 A 
ATOM     25  C29 FTA A   1     -10.885   8.838  30.290  1.00  0.00     0.002 A 
ATOM     26  C27 FTA A   1      -9.861   9.662  29.810  1.00  0.00     0.029 A 
ENDBRANCH  19  21
ENDBRANCH  16  19
ENDBRANCH  11  13
ENDBRANCH   1  11
TORSDOF 5
ENDMDL
MODEL 5
REMARK VINA RESULT:    -5.748     12.042     14.840
REMARK INTER + INTRA:          -8.439
REMARK INTER:                  -7.451
REMARK INTRA:                  -0.988
REMARK UNBOUND:                -1.011
REMARK  5 active torsions:
REMARK  status: ('A' for Active; 'I' for Inactive)
REMARK    1  A    between atoms: N8_1  and  C24_2 
REMARK    2  A    between atoms: N8_1  and  C7_8 
REMARK    3  A    between atoms: C2_13  and  N1_14 
REMARK    4  A    between atoms: N1_14  and  C17_15 
REMARK    5  A    between atoms: C14_16  and  C13_19 
ROOT
ATOM      1  C17 FTA A   1       4.935  16.144  17.959  1.00  0.00     0.142 C 
ATOM      2  C14 FTA A   1       6.034  16.796  18.386  1.00  0.00     0.158 C 
ATOM      3  C18 FTA A   1       7.325  16.510  17.797  1.00  0.00     0.069 C 
ATOM      4  N21 FTA A   1       8.305  16.137  17.273  1.00  0.00    -0.197 NA
ENDROOT
BRANCH   2   5
ATOM      5  C13 FTA A   1       5.906  17.819  19.450  1.00  0.00     0.197 A 
ATOM      6  N15 FTA A   1       4.814  17.992  20.297  1.00  0.00    -0.093 NA
ATOM      7  N19 FTA A   1       5.084  19.085  21.109  1.00  0.00    -0.231 N 
ATOM      8  N20 FTA A   1       6.330  19.600  20.780  1.00  0.00    -0.017 NA
ATOM      9  H15 FTA A   1       4.460  19.455  21.840  1.00  0.00     0.200 HD
ATOM     10  N16 FTA A   1       6.846  18.809  19.759  1.00  0.00    -0.090 NA
ENDBRANCH   2   5
BRANCH   1  11
ATOM     11  N1  FTA A   1       4.153  15.523  18.863  1.00  0.00    -0.389 N 
ATOM     12  H11 FTA A   1       4.565  15.314  19.784  1.00  0.00     0.159 HD
BRANCH  11  13
ATOM     13  C2  FTA A   1       2.803  15.136  18.645  1.00  0.00     0.028 A 
ATOM     14  C4  FTA A   1       2.460  13.863  18.196  1.00  0.00     0.031 A 
ATOM     15  C6  FTA A   1       1.143  13.620  17.782  1.00  0.00     0.031 A 
ATOM     16  C7  FTA A   1       0.166  14.611  17.802  1.00  0.00     0.032 A 
ATOM     17  C5  FTA A   1       0.516  15.864  18.273  1.00  0.00     0.031 A 
ATOM     18  C3  FTA A   1       1.819  16.129  18.676  1.00  0.00     0.031 A 
BRANCH  16  19
ATOM     19  N8  FTA A   1      -1.107  14.450  17.197  1.00  0.00    -0.356 N 
ATOM     20  H1  FTA A   1      -1.797  13.870  17.696  1.00  0.00     0.166 HD
BRANCH  19  21
ATOM     21  C24 FTA A   1      -1.510  15.024  15.953  1.00  0.00     0.032 A 
ATOM     22  C26 FTA A   1      -2.826  15.323  15.690  1.00  0.00     0.029 A 
ATOM     23  C28 FTA A   1      -3.173  15.713  14.411  1.00  0.00     0.002 A 
ATOM     24  C30 FTA A   1      -2.242  15.844  13.395  1.00  0.00     0.000 A 
ATOM     25  C29 FTA A   1      -0.922  15.586  13.654  1.00  0.00     0.002 A 
ATOM     26  C27 FTA A   1      -0.567  15.187  14.948  1.00  0.00     0.029 A 
ENDBRANCH  19  21
ENDBRANCH  16  19
ENDBRANCH  11  13
ENDBRANCH   1  11
TORSDOF 5
ENDMDL
MODEL 6
REMARK VINA RESULT:    -5.706      2.208      4.285
REMARK INTER + INTRA:          -8.384
REMARK INTER:                  -7.331
REMARK INTRA:                  -1.053
REMARK UNBOUND:                -1.011
REMARK  5 active torsions:
REMARK  status: ('A' for Active; 'I' for Inactive)
REMARK    1  A    between atoms: N8_1  and  C24_2 
REMARK    2  A    between atoms: N8_1  and  C7_8 
REMARK    3  A    between atoms: C2_13  and  N1_14 
REMARK    4  A    between atoms: N1_14  and  C17_15 
REMARK    5  A    between atoms: C14_16  and  C13_19 
ROOT
ATOM      1  C17 FTA A   1      -6.129  13.332  28.553  1.00  0.00     0.142 C 
ATOM      2  C14 FTA A   1      -7.013  14.079  29.244  1.00  0.00     0.158 C 
ATOM      3  C18 FTA A   1      -8.425  13.763  29.199  1.00  0.00     0.069 C 
ATOM      4  N21 FTA A   1      -9.534  13.427  29.024  1.00  0.00    -0.197 NA
ENDROOT
BRANCH   2   5
ATOM      5  C13 FTA A   1      -6.526  15.213  30.062  1.00  0.00     0.197 A 
ATOM      6  N15 FTA A   1      -7.298  16.013  30.901  1.00  0.00    -0.093 NA
ATOM      7  N19 FTA A   1      -6.463  16.983  31.439  1.00  0.00    -0.231 N 
ATOM      8  N20 FTA A   1      -5.179  16.803  30.946  1.00  0.00    -0.017 NA
ATOM      9  H15 FTA A   1      -6.750  17.720  32.099  1.00  0.00     0.200 HD
ATOM     10  N16 FTA A   1      -5.214  15.699  30.100  1.00  0.00    -0.090 NA
ENDBRANCH   2   5
BRANCH   1  11
ATOM     11  N1  FTA A   1      -5.273  13.947  27.714  1.00  0.00    -0.389 N 
ATOM     12  H11 FTA A   1      -4.500  14.483  28.132  1.00  0.00     0.159 HD
BRANCH  11  13
ATOM     13  C2  FTA A   1      -5.356  13.912  26.295  1.00  0.00     0.028 A 
ATOM     14  C4  FTA A   1      -6.522  13.541  25.630  1.00  0.00     0.031 A 
ATOM     15  C6  FTA A   1      -6.471  13.304  24.249  1.00  0.00     0.031 A 
ATOM     16  C7  FTA A   1      -5.291  13.425  23.521  1.00  0.00     0.032 A 
ATOM     17  C5  FTA A   1      -4.147  13.819  24.192  1.00  0.00     0.031 A 
ATOM     18  C3  FTA A   1      -4.173  14.045  25.562  1.00  0.00     0.031 A 
BRANCH  16  19
ATOM     19  N8  FTA A   1      -5.169  12.992  22.176  1.00  0.00    -0.356 N 
ATOM     20  H1  FTA A   1      -5.708  13.505  21.463  1.00  0.00     0.166 HD
BRANCH  19  21
ATOM     21  C24 FTA A   1      -4.360  11.903  21.728  1.00  0.00     0.032 A 
ATOM     22  C26 FTA A   1      -3.460  12.050  20.700  1.00  0.00     0.029 A 
ATOM     23  C28 FTA A   1      -2.836  10.922  20.201  1.00  0.00     0.002 A 
ATOM     24  C30 FTA A   1      -3.061   9.658  20.718  1.00  0.00     0.000 A 
ATOM     25  C29 FTA A   1      -3.927   9.504  21.768  1.00  0.00     0.002 A 
ATOM     26  C27 FTA A   1      -4.563  10.643  22.273  1.00  0.00     0.029 A 
ENDBRANCH  19  21
ENDBRANCH  16  19
ENDBRANCH  11  13
ENDBRANCH   1  11
TORSDOF 5
ENDMDL
MODEL 7
REMARK VINA RESULT:    -5.556     12.301     15.500
REMARK INTER + INTRA:          -8.191
REMARK INTER:                  -7.180
REMARK INTRA:                  -1.011
REMARK UNBOUND:                -1.011
REMARK  5 active torsions:
REMARK  status: ('A' for Active; 'I' for Inactive)
REMARK    1  A    between atoms: N8_1  and  C24_2 
REMARK    2  A    between atoms: N8_1  and  C7_8 
REMARK    3  A    between atoms: C2_13  and  N1_14 
REMARK    4  A    between atoms: N1_14  and  C17_15 
REMARK    5  A    between atoms: C14_16  and  C13_19 
ROOT
ATOM      1  C17 FTA A   1       5.802  17.914  18.615  1.00  0.00     0.142 C 
ATOM      2  C14 FTA A   1       7.102  17.739  18.926  1.00  0.00     0.158 C 
ATOM      3  C18 FTA A   1       7.984  17.053  18.006  1.00  0.00     0.069 C 
ATOM      4  N21 FTA A   1       8.563  16.433  17.196  1.00  0.00    -0.197 NA
ENDROOT
BRANCH   2   5
ATOM      5  C13 FTA A   1       7.622  18.268  20.207  1.00  0.00     0.197 A 
ATOM      6  N15 FTA A   1       8.489  17.610  21.077  1.00  0.00    -0.093 NA
ATOM      7  N19 FTA A   1       8.686  18.437  22.176  1.00  0.00    -0.231 N 
ATOM      8  N20 FTA A   1       7.952  19.602  22.006  1.00  0.00    -0.017 NA
ATOM      9  H15 FTA A   1       9.281  18.220  22.988  1.00  0.00     0.200 HD
ATOM     10  N16 FTA A   1       7.300  19.504  20.780  1.00  0.00    -0.090 NA
ENDBRANCH   2   5
BRANCH   1  11
ATOM     11  N1  FTA A   1       4.863  17.515  19.495  1.00  0.00    -0.389 N 
ATOM     12  H11 FTA A   1       4.854  17.970  20.419  1.00  0.00     0.159 HD
BRANCH  11  13
ATOM     13  C2  FTA A   1       3.884  16.516  19.245  1.00  0.00     0.028 A 
ATOM     14  C4  FTA A   1       4.190  15.325  18.591  1.00  0.00     0.031 A 
ATOM     15  C6  FTA A   1       3.144  14.491  18.172  1.00  0.00     0.031 A 
ATOM     16  C7  FTA A   1       1.807  14.816  18.387  1.00  0.00     0.032 A 
ATOM     17  C5  FTA A   1       1.521  15.990  19.060  1.00  0.00     0.031 A 
ATOM     18  C3  FTA A   1       2.542  16.837  19.471  1.00  0.00     0.031 A 
BRANCH  16  19
ATOM     19  N8  FTA A   1       0.736  14.099  17.793  1.00  0.00    -0.356 N 
ATOM     20  H1  FTA A   1       0.413  13.248  18.275  1.00  0.00     0.166 HD
BRANCH  19  21
ATOM     21  C24 FTA A   1       0.070  14.461  16.584  1.00  0.00     0.032 A 
ATOM     22  C26 FTA A   1       0.707  14.408  15.367  1.00  0.00     0.029 A 
ATOM     23  C28 FTA A   1       0.066  14.933  14.261  1.00  0.00     0.002 A 
ATOM     24  C30 FTA A   1      -1.204  15.481  14.328  1.00  0.00     0.000 A 
ATOM     25  C29 FTA A   1      -1.864  15.505  15.527  1.00  0.00     0.002 A 
ATOM     26  C27 FTA A   1      -1.216  14.977  16.650  1.00  0.00     0.029 A 
ENDBRANCH  19  21
ENDBRANCH  16  19
ENDBRANCH  11  13
ENDBRANCH   1  11
TORSDOF 5
ENDMDL
MODEL 8
REMARK VINA RESULT:    -5.489     12.263     14.289
REMARK INTER + INTRA:          -8.104
REMARK INTER:                  -7.047
REMARK INTRA:                  -1.057
REMARK UNBOUND:                -1.011
REMARK  5 active torsions:
REMARK  status: ('A' for Active; 'I' for Inactive)
REMARK    1  A    between atoms: N8_1  and  C24_2 
REMARK    2  A    between atoms: N8_1  and  C7_8 
REMARK    3  A    between atoms: C2_13  and  N1_14 
REMARK    4  A    between atoms: N1_14  and  C17_15 
REMARK    5  A    between atoms: C14_16  and  C13_19 
ROOT
ATOM      1  C17 FTA A   1       4.804  16.789  18.846  1.00  0.00     0.142 C 
ATOM      2  C14 FTA A   1       5.197  17.887  19.521  1.00  0.00     0.158 C 
ATOM      3  C18 FTA A   1       6.558  17.997  20.001  1.00  0.00     0.069 C 
ATOM      4  N21 FTA A   1       7.666  17.923  20.378  1.00  0.00    -0.197 NA
ENDROOT
BRANCH   2   5
ATOM      5  C13 FTA A   1       4.231  18.985  19.753  1.00  0.00     0.197 A 
ATOM      6  N15 FTA A   1       2.895  19.001  19.359  1.00  0.00    -0.093 NA
ATOM      7  N19 FTA A   1       2.365  20.230  19.730  1.00  0.00    -0.231 N 
ATOM      8  N20 FTA A   1       3.352  20.984  20.348  1.00  0.00    -0.017 NA
ATOM      9  H15 FTA A   1       1.393  20.534  19.571  1.00  0.00     0.200 HD
ATOM     10  N16 FTA A   1       4.507  20.210  20.373  1.00  0.00    -0.090 NA
ENDBRANCH   2   5
BRANCH   1  11
ATOM     11  N1  FTA A   1       3.708  16.127  19.263  1.00  0.00    -0.389 N 
ATOM     12  H11 FTA A   1       3.579  16.011  20.279  1.00  0.00     0.159 HD
BRANCH  11  13
ATOM     13  C2  FTA A   1       2.715  15.575  18.409  1.00  0.00     0.028 A 
ATOM     14  C4  FTA A   1       2.697  15.820  17.038  1.00  0.00     0.031 A 
ATOM     15  C6  FTA A   1       1.571  15.442  16.294  1.00  0.00     0.031 A 
ATOM     16  C7  FTA A   1       0.467  14.829  16.882  1.00  0.00     0.032 A 
ATOM     17  C5  FTA A   1       0.511  14.570  18.240  1.00  0.00     0.031 A 
ATOM     18  C3  FTA A   1       1.612  14.949  18.997  1.00  0.00     0.031 A 
BRANCH  16  19
ATOM     19  N8  FTA A   1      -0.758  14.629  16.195  1.00  0.00    -0.356 N 
ATOM     20  H1  FTA A   1      -0.900  13.717  15.738  1.00  0.00     0.166 HD
BRANCH  19  21
ATOM     21  C24 FTA A   1      -1.811  15.588  16.087  1.00  0.00     0.032 A 
ATOM     22  C26 FTA A   1      -1.723  16.825  16.681  1.00  0.00     0.029 A 
ATOM     23  C28 FTA A   1      -2.841  17.638  16.686  1.00  0.00     0.002 A 
ATOM     24  C30 FTA A   1      -4.033  17.265  16.089  1.00  0.00     0.000 A 
ATOM     25  C29 FTA A   1      -4.122  16.051  15.461  1.00  0.00     0.002 A 
ATOM     26  C27 FTA A   1      -2.993  15.224  15.458  1.00  0.00     0.029 A 
ENDBRANCH  19  21
ENDBRANCH  16  19
ENDBRANCH  11  13
ENDBRANCH   1  11
TORSDOF 5
ENDMDL
