MODEL 1
REMARK VINA RESULT:    -9.795      0.000      0.000
REMARK INTER + INTRA:         -11.285
REMARK INTER:                 -10.408
REMARK INTRA:                  -0.876
REMARK UNBOUND:                 0.228
REMARK  3 active torsions:
REMARK  status: ('A' for Active; 'I' for Inactive)
REMARK    1  A    between atoms: C_10  and  C_11 
REMARK       I    between atoms: C_11  and  N_13 
REMARK    2  A    between atoms: N_13  and  C_14 
REMARK    3  A    between atoms: C_23  and  C_27 
ROOT
HETATM    1  C   UNL     1       1.563   5.311  26.886  0.00  0.00     0.153 C 
HETATM    2  C   UNL     1       1.763   5.522  25.399  0.00  0.00    -0.020 A 
HETATM    3  C   UNL     1       1.214   6.772  25.019  0.00  0.00    -0.016 A 
HETATM    4  C   UNL     1       2.263   4.616  24.469  0.00  0.00     0.010 A 
HETATM    5  C   UNL     1       2.184   4.944  23.115  0.00  0.00     0.001 A 
HETATM    6  C   UNL     1       1.579   6.141  22.718  0.00  0.00     0.001 A 
HETATM    7  C   UNL     1       1.091   7.045  23.668  0.00  0.00     0.013 A 
HETATM    8  C   UNL     1       1.204   6.716  27.347  0.00  0.00    -0.019 A 
HETATM    9  C   UNL     1       0.869   7.542  26.225  0.00  0.00    -0.003 A 
HETATM   10  C   UNL     1       0.323   8.822  26.444  0.00  0.00     0.022 A 
HETATM   11  C   UNL     1       0.155   9.226  27.790  0.00  0.00     0.016 A 
HETATM   12  C   UNL     1       0.533   8.413  28.874  0.00  0.00     0.002 A 
HETATM   13  C   UNL     1       1.061   7.147  28.658  0.00  0.00     0.010 A 
ENDROOT
BRANCH   1  14
HETATM   14  N   UNL     1       2.649   4.645  27.568  0.00  0.00    -0.344 N 
HETATM   15  C   UNL     1       3.892   5.255  27.647  0.00  0.00     0.253 C 
HETATM   16  O   UNL     1       4.185   6.252  26.996  0.00  0.00    -0.268 OA
HETATM   17  H   UNL     1       2.473   3.748  27.996  0.00  0.00     0.163 HD
BRANCH  15  18
HETATM   18  C   UNL     1       4.882   4.681  28.594  0.00  0.00     0.047 A 
HETATM   19  C   UNL     1       4.758   4.895  29.986  0.00  0.00     0.027 A 
HETATM   20  C   UNL     1       3.887   5.610  30.862  0.00  0.00     0.033 A 
HETATM   21  C   UNL     1       5.692   4.265  30.805  0.00  0.00     0.138 A 
HETATM   22  C   UNL     1       4.315   5.409  32.155  0.00  0.00     0.090 A 
HETATM   23  N   UNL     1       5.414   4.595  32.103  0.00  0.00    -0.350 N 
HETATM   24  H   UNL     1       5.948   4.252  32.892  0.00  0.00     0.166 HD
HETATM   25  N   UNL     1       6.701   3.462  30.432  0.00  0.00    -0.242 NA
HETATM   26  C   UNL     1       6.754   3.264  29.096  0.00  0.00     0.120 A 
HETATM   27  C   UNL     1       5.901   3.825  28.158  0.00  0.00     0.037 A 
ENDBRANCH  15  18
ENDBRANCH   1  14
BRANCH  10  28
HETATM   28  C   UNL     1      -0.070   9.760  25.376  0.00  0.00     0.140 A 
HETATM   29  N   UNL     1       0.819  10.526  24.640  0.00  0.00    -0.338 N 
HETATM   30  H   UNL     1       1.823  10.527  24.755  0.00  0.00     0.167 HD
HETATM   31  C   UNL     1       0.114  11.337  23.781  0.00  0.00     0.063 A 
HETATM   32  C   UNL     1      -1.211  11.008  24.029  0.00  0.00     0.088 A 
HETATM   33  C   UNL     1       0.497  12.307  22.849  0.00  0.00     0.035 A 
HETATM   34  N   UNL     1      -1.293   9.996  24.947  0.00  0.00    -0.228 NA
HETATM   35  C   UNL     1      -2.237  11.701  23.379  0.00  0.00     0.076 A 
HETATM   36  C   UNL     1      -1.876  12.687  22.464  0.00  0.00     0.118 A 
HETATM   37  F   UNL     1      -2.838  13.373  21.832  0.00  0.00    -0.206 F 
HETATM   38  C   UNL     1      -0.541  12.980  22.188  0.00  0.00     0.044 A 
ENDBRANCH  10  28
TORSDOF 3
ENDMDL
MODEL 2
REMARK VINA RESULT:    -9.753      1.348      1.354
REMARK INTER + INTRA:         -11.235
REMARK INTER:                 -10.357
REMARK INTRA:                  -0.879
REMARK UNBOUND:                 0.228
REMARK  3 active torsions:
REMARK  status: ('A' for Active; 'I' for Inactive)
REMARK    1  A    between atoms: C_10  and  C_11 
REMARK       I    between atoms: C_11  and  N_13 
REMARK    2  A    between atoms: N_13  and  C_14 
REMARK    3  A    between atoms: C_23  and  C_27 
ROOT
HETATM    1  C   UNL     1       2.885   6.342  26.902  0.00  0.00     0.153 C 
HETATM    2  C   UNL     1       3.409   6.839  25.571  0.00  0.00    -0.020 A 
HETATM    3  C   UNL     1       2.551   7.849  25.070  0.00  0.00    -0.016 A 
HETATM    4  C   UNL     1       4.471   6.331  24.829  0.00  0.00     0.010 A 
HETATM    5  C   UNL     1       4.667   6.815  23.534  0.00  0.00     0.001 A 
HETATM    6  C   UNL     1       3.785   7.758  22.998  0.00  0.00     0.001 A 
HETATM    7  C   UNL     1       2.729   8.266  23.763  0.00  0.00     0.013 A 
HETATM    8  C   UNL     1       1.887   7.432  27.263  0.00  0.00    -0.019 A 
HETATM    9  C   UNL     1       1.597   8.245  26.119  0.00  0.00    -0.003 A 
HETATM   10  C   UNL     1       0.555   9.191  26.186  0.00  0.00     0.022 A 
HETATM   11  C   UNL     1      -0.141   9.292  27.414  0.00  0.00     0.016 A 
HETATM   12  C   UNL     1       0.192   8.513  28.536  0.00  0.00     0.002 A 
HETATM   13  C   UNL     1       1.212   7.573  28.467  0.00  0.00     0.010 A 
ENDROOT
BRANCH   1  14
HETATM   14  N   UNL     1       3.896   6.015  27.882  0.00  0.00    -0.344 N 
HETATM   15  C   UNL     1       4.040   4.705  28.315  0.00  0.00     0.253 C 
HETATM   16  O   UNL     1       3.221   3.828  28.061  0.00  0.00    -0.268 OA
HETATM   17  H   UNL     1       4.498   6.752  28.219  0.00  0.00     0.163 HD
BRANCH  15  18
HETATM   18  C   UNL     1       5.262   4.366  29.087  0.00  0.00     0.047 A 
HETATM   19  C   UNL     1       5.369   4.708  30.456  0.00  0.00     0.027 A 
HETATM   20  C   UNL     1       4.582   5.394  31.429  0.00  0.00     0.033 A 
HETATM   21  C   UNL     1       6.522   4.293  31.119  0.00  0.00     0.138 A 
HETATM   22  C   UNL     1       5.268   5.386  32.622  0.00  0.00     0.090 A 
HETATM   23  N   UNL     1       6.445   4.720  32.416  0.00  0.00    -0.350 N 
HETATM   24  H   UNL     1       7.161   4.534  33.107  0.00  0.00     0.166 HD
HETATM   25  N   UNL     1       7.551   3.593  30.617  0.00  0.00    -0.242 NA
HETATM   26  C   UNL     1       7.382   3.263  29.317  0.00  0.00     0.120 A 
HETATM   27  C   UNL     1       6.297   3.607  28.525  0.00  0.00     0.037 A 
ENDBRANCH  15  18
ENDBRANCH   1  14
BRANCH  10  28
HETATM   28  C   UNL     1       0.155  10.078  25.078  0.00  0.00     0.140 A 
HETATM   29  N   UNL     1       1.021  10.914  24.393  0.00  0.00    -0.338 N 
HETATM   30  H   UNL     1       2.010  11.009  24.576  0.00  0.00     0.167 HD
HETATM   31  C   UNL     1       0.308  11.648  23.473  0.00  0.00     0.063 A 
HETATM   32  C   UNL     1      -0.997  11.202  23.634  0.00  0.00     0.088 A 
HETATM   33  C   UNL     1       0.666  12.640  22.553  0.00  0.00     0.035 A 
HETATM   34  N   UNL     1      -1.051  10.197  24.561  0.00  0.00    -0.228 NA
HETATM   35  C   UNL     1      -2.032  11.791  22.903  0.00  0.00     0.076 A 
HETATM   36  C   UNL     1      -1.699  12.796  21.999  0.00  0.00     0.118 A 
HETATM   37  F   UNL     1      -2.673  13.384  21.290  0.00  0.00    -0.206 F 
HETATM   38  C   UNL     1      -0.380  13.208  21.811  0.00  0.00     0.044 A 
ENDBRANCH  10  28
TORSDOF 3
ENDMDL
MODEL 3
REMARK VINA RESULT:    -9.281      0.875      1.794
REMARK INTER + INTRA:         -10.681
REMARK INTER:                  -9.945
REMARK INTRA:                  -0.736
REMARK UNBOUND:                 0.228
REMARK  3 active torsions:
REMARK  status: ('A' for Active; 'I' for Inactive)
REMARK    1  A    between atoms: C_10  and  C_11 
REMARK       I    between atoms: C_11  and  N_13 
REMARK    2  A    between atoms: N_13  and  C_14 
REMARK    3  A    between atoms: C_23  and  C_27 
ROOT
HETATM    1  C   UNL     1       0.722   6.036  27.050  0.00  0.00     0.153 C 
HETATM    2  C   UNL     1       1.129   6.086  25.591  0.00  0.00    -0.020 A 
HETATM    3  C   UNL     1       0.680   7.300  25.014  0.00  0.00    -0.016 A 
HETATM    4  C   UNL     1       1.719   5.078  24.835  0.00  0.00     0.010 A 
HETATM    5  C   UNL     1       1.835   5.264  23.457  0.00  0.00     0.001 A 
HETATM    6  C   UNL     1       1.331   6.425  22.861  0.00  0.00     0.001 A 
HETATM    7  C   UNL     1       0.751   7.434  23.639  0.00  0.00     0.013 A 
HETATM    8  C   UNL     1       0.352   7.488  27.312  0.00  0.00    -0.019 A 
HETATM    9  C   UNL     1       0.201   8.199  26.077  0.00  0.00    -0.003 A 
HETATM   10  C   UNL     1      -0.324   9.506  26.088  0.00  0.00     0.022 A 
HETATM   11  C   UNL     1      -0.659  10.052  27.351  0.00  0.00     0.016 A 
HETATM   12  C   UNL     1      -0.460   9.350  28.553  0.00  0.00     0.002 A 
HETATM   13  C   UNL     1       0.048   8.057  28.541  0.00  0.00     0.010 A 
ENDROOT
BRANCH   1  14
HETATM   14  N   UNL     1       1.682   5.422  27.939  0.00  0.00    -0.344 N 
HETATM   15  C   UNL     1       2.906   6.035  28.162  0.00  0.00     0.253 C 
HETATM   16  O   UNL     1       3.308   6.979  27.489  0.00  0.00    -0.268 OA
HETATM   17  H   UNL     1       1.430   4.561  28.401  0.00  0.00     0.163 HD
BRANCH  15  18
HETATM   18  C   UNL     1       3.731   5.534  29.290  0.00  0.00     0.047 A 
HETATM   19  C   UNL     1       4.817   4.658  29.056  0.00  0.00     0.027 A 
HETATM   20  C   UNL     1       5.411   4.003  27.936  0.00  0.00     0.033 A 
HETATM   21  C   UNL     1       5.577   4.291  30.164  0.00  0.00     0.138 A 
HETATM   22  C   UNL     1       6.482   3.264  28.387  0.00  0.00     0.090 A 
HETATM   23  N   UNL     1       6.565   3.444  29.741  0.00  0.00    -0.350 N 
HETATM   24  H   UNL     1       7.259   3.044  30.361  0.00  0.00     0.166 HD
HETATM   25  N   UNL     1       5.411   4.676  31.438  0.00  0.00    -0.242 NA
HETATM   26  C   UNL     1       4.382   5.537  31.601  0.00  0.00     0.120 A 
HETATM   27  C   UNL     1       3.536   5.989  30.600  0.00  0.00     0.037 A 
ENDBRANCH  15  18
ENDBRANCH   1  14
BRANCH  10  28
HETATM   28  C   UNL     1      -0.536  10.335  24.888  0.00  0.00     0.140 A 
HETATM   29  N   UNL     1       0.475  10.979  24.193  0.00  0.00    -0.338 N 
HETATM   30  H   UNL     1       1.456  10.954  24.431  0.00  0.00     0.167 HD
HETATM   31  C   UNL     1      -0.078  11.718  23.172  0.00  0.00     0.063 A 
HETATM   32  C   UNL     1      -1.439  11.472  23.285  0.00  0.00     0.088 A 
HETATM   33  C   UNL     1       0.465  12.563  22.198  0.00  0.00     0.035 A 
HETATM   34  N   UNL     1      -1.685  10.571  24.286  0.00  0.00    -0.228 NA
HETATM   35  C   UNL     1      -2.341  12.128  22.442  0.00  0.00     0.076 A 
HETATM   36  C   UNL     1      -1.821  12.992  21.482  0.00  0.00     0.118 A 
HETATM   37  F   UNL     1      -2.663  13.641  20.666  0.00  0.00    -0.206 F 
HETATM   38  C   UNL     1      -0.450  13.200  21.346  0.00  0.00     0.044 A 
ENDBRANCH  10  28
TORSDOF 3
ENDMDL
MODEL 4
REMARK VINA RESULT:    -9.142      1.597      2.383
REMARK INTER + INTRA:         -10.517
REMARK INTER:                 -10.331
REMARK INTRA:                  -0.186
REMARK UNBOUND:                 0.228
REMARK  3 active torsions:
REMARK  status: ('A' for Active; 'I' for Inactive)
REMARK    1  A    between atoms: C_10  and  C_11 
REMARK       I    between atoms: C_11  and  N_13 
REMARK    2  A    between atoms: N_13  and  C_14 
REMARK    3  A    between atoms: C_23  and  C_27 
ROOT
HETATM    1  C   UNL     1       2.742   5.806  27.030  0.00  0.00     0.153 C 
HETATM    2  C   UNL     1       3.438   6.581  25.931  0.00  0.00    -0.020 A 
HETATM    3  C   UNL     1       2.594   7.628  25.482  0.00  0.00    -0.016 A 
HETATM    4  C   UNL     1       4.647   6.283  25.310  0.00  0.00     0.010 A 
HETATM    5  C   UNL     1       5.015   7.022  24.185  0.00  0.00     0.001 A 
HETATM    6  C   UNL     1       4.160   8.009  23.684  0.00  0.00     0.001 A 
HETATM    7  C   UNL     1       2.953   8.304  24.328  0.00  0.00     0.013 A 
HETATM    8  C   UNL     1       1.611   6.753  27.403  0.00  0.00    -0.019 A 
HETATM    9  C   UNL     1       1.450   7.762  26.397  0.00  0.00    -0.003 A 
HETATM   10  C   UNL     1       0.337   8.624  26.452  0.00  0.00     0.022 A 
HETATM   11  C   UNL     1      -0.560   8.446  27.532  0.00  0.00     0.016 A 
HETATM   12  C   UNL     1      -0.355   7.478  28.531  0.00  0.00     0.002 A 
HETATM   13  C   UNL     1       0.736   6.621  28.471  0.00  0.00     0.010 A 
ENDROOT
BRANCH   1  14
HETATM   14  N   UNL     1       3.599   5.341  28.097  0.00  0.00    -0.344 N 
HETATM   15  C   UNL     1       4.041   6.231  29.065  0.00  0.00     0.253 C 
HETATM   16  O   UNL     1       3.908   7.446  28.959  0.00  0.00    -0.268 OA
HETATM   17  H   UNL     1       3.843   4.362  28.129  0.00  0.00     0.163 HD
BRANCH  15  18
HETATM   18  C   UNL     1       4.667   5.665  30.286  0.00  0.00     0.047 A 
HETATM   19  C   UNL     1       6.042   5.333  30.305  0.00  0.00     0.027 A 
HETATM   20  C   UNL     1       7.135   5.344  29.387  0.00  0.00     0.033 A 
HETATM   21  C   UNL     1       6.560   4.870  31.512  0.00  0.00     0.138 A 
HETATM   22  C   UNL     1       8.255   4.886  30.043  0.00  0.00     0.090 A 
HETATM   23  N   UNL     1       7.889   4.598  31.329  0.00  0.00    -0.350 N 
HETATM   24  H   UNL     1       8.493   4.255  32.066  0.00  0.00     0.166 HD
HETATM   25  N   UNL     1       5.912   4.707  32.676  0.00  0.00    -0.242 NA
HETATM   26  C   UNL     1       4.612   5.071  32.612  0.00  0.00     0.120 A 
HETATM   27  C   UNL     1       3.954   5.542  31.485  0.00  0.00     0.037 A 
ENDBRANCH  15  18
ENDBRANCH   1  14
BRANCH  10  28
HETATM   28  C   UNL     1       0.056   9.692  25.475  0.00  0.00     0.140 A 
HETATM   29  N   UNL     1      -1.200   9.975  24.964  0.00  0.00    -0.338 N 
HETATM   30  H   UNL     1      -2.050   9.484  25.200  0.00  0.00     0.167 HD
HETATM   31  C   UNL     1      -1.092  10.980  24.030  0.00  0.00     0.063 A 
HETATM   32  C   UNL     1       0.262  11.283  24.025  0.00  0.00     0.088 A 
HETATM   33  C   UNL     1      -2.020  11.624  23.204  0.00  0.00     0.035 A 
HETATM   34  N   UNL     1       0.926  10.540  24.964  0.00  0.00    -0.228 NA
HETATM   35  C   UNL     1       0.764  12.227  23.125  0.00  0.00     0.076 A 
HETATM   36  C   UNL     1      -0.141  12.863  22.278  0.00  0.00     0.118 A 
HETATM   37  F   UNL     1       0.313  13.766  21.399  0.00  0.00    -0.206 F 
HETATM   38  C   UNL     1      -1.506  12.584  22.320  0.00  0.00     0.044 A 
ENDBRANCH  10  28
TORSDOF 3
ENDMDL
MODEL 5
REMARK VINA RESULT:    -8.397      3.701      9.773
REMARK INTER + INTRA:          -9.642
REMARK INTER:                  -9.106
REMARK INTRA:                  -0.536
REMARK UNBOUND:                 0.228
REMARK  3 active torsions:
REMARK  status: ('A' for Active; 'I' for Inactive)
REMARK    1  A    between atoms: C_10  and  C_11 
REMARK       I    between atoms: C_11  and  N_13 
REMARK    2  A    between atoms: N_13  and  C_14 
REMARK    3  A    between atoms: C_23  and  C_27 
ROOT
HETATM    1  C   UNL     1       1.508   7.741  25.917  0.00  0.00     0.153 C 
HETATM    2  C   UNL     1       1.482   7.866  27.426  0.00  0.00    -0.020 A 
HETATM    3  C   UNL     1       2.541   7.107  27.984  0.00  0.00    -0.016 A 
HETATM    4  C   UNL     1       0.518   8.487  28.215  0.00  0.00     0.010 A 
HETATM    5  C   UNL     1       0.585   8.319  29.599  0.00  0.00     0.001 A 
HETATM    6  C   UNL     1       1.580   7.513  30.160  0.00  0.00     0.001 A 
HETATM    7  C   UNL     1       2.548   6.906  29.353  0.00  0.00     0.013 A 
HETATM    8  C   UNL     1       2.897   7.164  25.683  0.00  0.00    -0.019 A 
HETATM    9  C   UNL     1       3.447   6.668  26.910  0.00  0.00    -0.003 A 
HETATM   10  C   UNL     1       4.642   5.922  26.883  0.00  0.00     0.022 A 
HETATM   11  C   UNL     1       5.245   5.723  25.618  0.00  0.00     0.016 A 
HETATM   12  C   UNL     1       4.708   6.259  24.434  0.00  0.00     0.002 A 
HETATM   13  C   UNL     1       3.525   6.985  24.459  0.00  0.00     0.010 A 
ENDROOT
BRANCH   1  14
HETATM   14  N   UNL     1       1.155   8.940  25.191  0.00  0.00    -0.344 N 
HETATM   15  C   UNL     1      -0.175   9.204  24.900  0.00  0.00     0.253 C 
HETATM   16  O   UNL     1      -1.065   8.374  25.050  0.00  0.00    -0.268 OA
HETATM   17  H   UNL     1       1.891   9.579  24.927  0.00  0.00     0.163 HD
BRANCH  15  18
HETATM   18  C   UNL     1      -0.517  10.568  24.421  0.00  0.00     0.047 A 
HETATM   19  C   UNL     1       0.487  11.552  24.269  0.00  0.00     0.027 A 
HETATM   20  C   UNL     1       1.892  11.660  24.498  0.00  0.00     0.033 A 
HETATM   21  C   UNL     1       0.088  12.782  23.751  0.00  0.00     0.138 A 
HETATM   22  C   UNL     1       2.293  12.925  24.134  0.00  0.00     0.090 A 
HETATM   23  N   UNL     1       1.187  13.595  23.688  0.00  0.00    -0.350 N 
HETATM   24  H   UNL     1       1.158  14.544  23.336  0.00  0.00     0.166 HD
HETATM   25  N   UNL     1      -1.143  13.150  23.365  0.00  0.00    -0.242 NA
HETATM   26  C   UNL     1      -2.056  12.162  23.498  0.00  0.00     0.120 A 
HETATM   27  C   UNL     1      -1.813  10.893  24.001  0.00  0.00     0.037 A 
ENDBRANCH  15  18
ENDBRANCH   1  14
BRANCH  10  28
HETATM   28  C   UNL     1       5.301   5.352  28.072  0.00  0.00     0.140 A 
HETATM   29  N   UNL     1       4.751   4.369  28.877  0.00  0.00    -0.338 N 
HETATM   30  H   UNL     1       3.846   3.941  28.741  0.00  0.00     0.167 HD
HETATM   31  C   UNL     1       5.599   4.120  29.932  0.00  0.00     0.063 A 
HETATM   32  C   UNL     1       6.666   4.979  29.707  0.00  0.00     0.088 A 
HETATM   33  C   UNL     1       5.530   3.263  31.035  0.00  0.00     0.035 A 
HETATM   34  N   UNL     1       6.497   5.661  28.533  0.00  0.00    -0.228 NA
HETATM   35  C   UNL     1       7.707   5.058  30.637  0.00  0.00     0.076 A 
HETATM   36  C   UNL     1       7.645   4.229  31.754  0.00  0.00     0.118 A 
HETATM   37  F   UNL     1       8.625   4.290  32.666  0.00  0.00    -0.206 F 
HETATM   38  C   UNL     1       6.591   3.338  31.950  0.00  0.00     0.044 A 
ENDBRANCH  10  28
TORSDOF 3
ENDMDL
MODEL 6
REMARK VINA RESULT:    -7.974      3.586      9.642
REMARK INTER + INTRA:          -9.145
REMARK INTER:                  -8.677
REMARK INTRA:                  -0.468
REMARK UNBOUND:                 0.228
REMARK  3 active torsions:
REMARK  status: ('A' for Active; 'I' for Inactive)
REMARK    1  A    between atoms: C_10  and  C_11 
REMARK       I    between atoms: C_11  and  N_13 
REMARK    2  A    between atoms: N_13  and  C_14 
REMARK    3  A    between atoms: C_23  and  C_27 
ROOT
HETATM    1  C   UNL     1       1.207   7.301  25.817  0.00  0.00     0.153 C 
HETATM    2  C   UNL     1       1.149   7.396  27.328  0.00  0.00    -0.020 A 
HETATM    3  C   UNL     1       2.288   6.764  27.887  0.00  0.00    -0.016 A 
HETATM    4  C   UNL     1       0.108   7.879  28.114  0.00  0.00     0.010 A 
HETATM    5  C   UNL     1       0.180   7.698  29.496  0.00  0.00     0.001 A 
HETATM    6  C   UNL     1       1.261   7.012  30.058  0.00  0.00     0.001 A 
HETATM    7  C   UNL     1       2.306   6.543  29.253  0.00  0.00     0.013 A 
HETATM    8  C   UNL     1       2.658   6.904  25.592  0.00  0.00    -0.019 A 
HETATM    9  C   UNL     1       3.252   6.459  26.818  0.00  0.00    -0.003 A 
HETATM   10  C   UNL     1       4.531   5.867  26.794  0.00  0.00     0.022 A 
HETATM   11  C   UNL     1       5.167   5.765  25.534  0.00  0.00     0.016 A 
HETATM   12  C   UNL     1       4.580   6.250  24.352  0.00  0.00     0.002 A 
HETATM   13  C   UNL     1       3.316   6.824  24.374  0.00  0.00     0.010 A 
ENDROOT
BRANCH   1  14
HETATM   14  N   UNL     1       0.715   8.459  25.106  0.00  0.00    -0.344 N 
HETATM   15  C   UNL     1       1.287   9.702  25.333  0.00  0.00     0.253 C 
HETATM   16  O   UNL     1       2.063   9.917  26.258  0.00  0.00    -0.268 OA
HETATM   17  H   UNL     1      -0.028   8.334  24.434  0.00  0.00     0.163 HD
BRANCH  15  18
HETATM   18  C   UNL     1       0.959  10.795  24.382  0.00  0.00     0.047 A 
HETATM   19  C   UNL     1      -0.386  11.167  24.148  0.00  0.00     0.027 A 
HETATM   20  C   UNL     1      -1.680  10.739  24.570  0.00  0.00     0.033 A 
HETATM   21  C   UNL     1      -0.599  12.246  23.293  0.00  0.00     0.138 A 
HETATM   22  C   UNL     1      -2.619  11.542  23.963  0.00  0.00     0.090 A 
HETATM   23  N   UNL     1      -1.948  12.446  23.188  0.00  0.00    -0.350 N 
HETATM   24  H   UNL     1      -2.360  13.182  22.626  0.00  0.00     0.166 HD
HETATM   25  N   UNL     1       0.324  12.989  22.663  0.00  0.00    -0.242 NA
HETATM   26  C   UNL     1       1.591  12.613  22.948  0.00  0.00     0.120 A 
HETATM   27  C   UNL     1       1.960  11.561  23.772  0.00  0.00     0.037 A 
ENDBRANCH  15  18
ENDBRANCH   1  14
BRANCH  10  28
HETATM   28  C   UNL     1       5.243   5.363  27.983  0.00  0.00     0.140 A 
HETATM   29  N   UNL     1       4.813   4.302  28.762  0.00  0.00    -0.338 N 
HETATM   30  H   UNL     1       3.973   3.765  28.605  0.00  0.00     0.167 HD
HETATM   31  C   UNL     1       5.673   4.143  29.825  0.00  0.00     0.063 A 
HETATM   32  C   UNL     1       6.624   5.136  29.631  0.00  0.00     0.088 A 
HETATM   33  C   UNL     1       5.701   3.263  30.912  0.00  0.00     0.035 A 
HETATM   34  N   UNL     1       6.383   5.813  28.466  0.00  0.00    -0.228 NA
HETATM   35  C   UNL     1       7.635   5.329  30.577  0.00  0.00     0.076 A 
HETATM   36  C   UNL     1       7.666   4.478  31.678  0.00  0.00     0.118 A 
HETATM   37  F   UNL     1       8.619   4.646  32.605  0.00  0.00    -0.206 F 
HETATM   38  C   UNL     1       6.732   3.456  31.843  0.00  0.00     0.044 A 
ENDBRANCH  10  28
TORSDOF 3
ENDMDL
MODEL 7
REMARK VINA RESULT:    -7.341      5.500      8.262
REMARK INTER + INTRA:          -8.401
REMARK INTER:                  -7.831
REMARK INTRA:                  -0.569
REMARK UNBOUND:                 0.228
REMARK  3 active torsions:
REMARK  status: ('A' for Active; 'I' for Inactive)
REMARK    1  A    between atoms: C_10  and  C_11 
REMARK       I    between atoms: C_11  and  N_13 
REMARK    2  A    between atoms: N_13  and  C_14 
REMARK    3  A    between atoms: C_23  and  C_27 
ROOT
HETATM    1  C   UNL     1       4.877   8.015  23.191  0.00  0.00     0.153 C 
HETATM    2  C   UNL     1       3.759   8.608  24.025  0.00  0.00    -0.020 A 
HETATM    3  C   UNL     1       4.129   9.905  24.460  0.00  0.00    -0.016 A 
HETATM    4  C   UNL     1       2.595   7.982  24.459  0.00  0.00     0.010 A 
HETATM    5  C   UNL     1       1.788   8.650  25.382  0.00  0.00     0.001 A 
HETATM    6  C   UNL     1       2.174   9.899  25.876  0.00  0.00     0.001 A 
HETATM    7  C   UNL     1       3.344  10.519  25.420  0.00  0.00     0.013 A 
HETATM    8  C   UNL     1       5.718   9.246  22.891  0.00  0.00    -0.019 A 
HETATM    9  C   UNL     1       5.347  10.330  23.751  0.00  0.00    -0.003 A 
HETATM   10  C   UNL     1       6.130  11.501  23.770  0.00  0.00     0.022 A 
HETATM   11  C   UNL     1       7.248  11.539  22.903  0.00  0.00     0.016 A 
HETATM   12  C   UNL     1       7.565  10.479  22.036  0.00  0.00     0.002 A 
HETATM   13  C   UNL     1       6.800   9.321  22.025  0.00  0.00     0.010 A 
ENDROOT
BRANCH   1  14
HETATM   14  N   UNL     1       4.450   7.211  22.068  0.00  0.00    -0.344 N 
HETATM   15  C   UNL     1       4.148   5.870  22.255  0.00  0.00     0.253 C 
HETATM   16  O   UNL     1       4.412   5.268  23.290  0.00  0.00    -0.268 OA
HETATM   17  H   UNL     1       4.360   7.652  21.165  0.00  0.00     0.163 HD
BRANCH  15  18
HETATM   18  C   UNL     1       3.443   5.164  21.155  0.00  0.00     0.047 A 
HETATM   19  C   UNL     1       3.435   5.696  19.845  0.00  0.00     0.027 A 
HETATM   20  C   UNL     1       3.927   6.862  19.184  0.00  0.00     0.033 A 
HETATM   21  C   UNL     1       2.807   4.935  18.862  0.00  0.00     0.138 A 
HETATM   22  C   UNL     1       3.580   6.783  17.855  0.00  0.00     0.090 A 
HETATM   23  N   UNL     1       2.897   5.611  17.676  0.00  0.00    -0.350 N 
HETATM   24  H   UNL     1       2.522   5.259  16.804  0.00  0.00     0.166 HD
HETATM   25  N   UNL     1       2.210   3.741  19.004  0.00  0.00    -0.242 NA
HETATM   26  C   UNL     1       2.275   3.264  20.267  0.00  0.00     0.120 A 
HETATM   27  C   UNL     1       2.859   3.906  21.348  0.00  0.00     0.037 A 
ENDBRANCH  15  18
ENDBRANCH   1  14
BRANCH  10  28
HETATM   28  C   UNL     1       5.857  12.679  24.615  0.00  0.00     0.140 A 
HETATM   29  N   UNL     1       6.662  13.093  25.664  0.00  0.00    -0.338 N 
HETATM   30  H   UNL     1       7.512  12.638  25.963  0.00  0.00     0.167 HD
HETATM   31  C   UNL     1       6.080  14.178  26.279  0.00  0.00     0.063 A 
HETATM   32  C   UNL     1       4.921  14.391  25.546  0.00  0.00     0.088 A 
HETATM   33  C   UNL     1       6.440  14.961  27.381  0.00  0.00     0.035 A 
HETATM   34  N   UNL     1       4.846  13.515  24.497  0.00  0.00    -0.228 NA
HETATM   35  C   UNL     1       4.020  15.386  25.937  0.00  0.00     0.076 A 
HETATM   36  C   UNL     1       4.349  16.161  27.046  0.00  0.00     0.118 A 
HETATM   37  F   UNL     1       3.500  17.117  27.448  0.00  0.00    -0.206 F 
HETATM   38  C   UNL     1       5.537  15.969  27.750  0.00  0.00     0.044 A 
ENDBRANCH  10  28
TORSDOF 3
ENDMDL
