MODEL 1
REMARK VINA RESULT:    -8.148      0.000      0.000
REMARK INTER + INTRA:         -13.711
REMARK INTER:                 -12.181
REMARK INTRA:                  -1.530
REMARK UNBOUND:                -1.991
REMARK  8 active torsions:
REMARK  status: ('A' for Active; 'I' for Inactive)
REMARK    1  A    between atoms: C_7  and  C_8 
REMARK    2  A    between atoms: C_8  and  C_9 
REMARK    3  A    between atoms: C_16  and  C_20 
REMARK    4  A    between atoms: C_17  and  O_19 
REMARK       I    between atoms: C_20  and  N_22 
REMARK    5  A    between atoms: N_22  and  C_24 
REMARK    6  A    between atoms: C_27  and  C_30 
REMARK    7  A    between atoms: C_30  and  N_31 
REMARK    8  A    between atoms: N_31  and  S_32 
ROOT
HETATM    1  C   UNL     1       4.143   7.816  19.090  0.00  0.00     0.071 A 
HETATM    2  N   UNL     1       5.295   8.145  18.473  0.00  0.00    -0.178 NA
HETATM    3  N   UNL     1       6.243   7.618  19.262  0.00  0.00    -0.277 N 
HETATM    4  H   UNL     1       7.213   7.780  19.016  0.00  0.00     0.189 HD
HETATM    5  C   UNL     1       4.379   7.016  20.245  0.00  0.00     0.020 A 
HETATM    6  C   UNL     1       5.760   6.990  20.377  0.00  0.00     0.065 A 
HETATM    7  C   UNL     1       3.589   6.397  21.238  0.00  0.00     0.035 C 
HETATM    8  C   UNL     1       4.221   5.799  22.343  0.00  0.00     0.066 C 
HETATM    9  C   UNL     1       5.609   5.927  22.499  0.00  0.00     0.083 C 
HETATM   10  C   UNL     1       6.416   6.466  21.497  0.00  0.00     0.069 C 
ENDROOT
BRANCH   8  11
HETATM   11  C   UNL     1       3.428   5.071  23.377  0.00  0.00     0.260 C 
HETATM   12  O   UNL     1       3.270   3.864  23.171  0.00  0.00    -0.267 OA
HETATM   13  N   UNL     1       2.951   5.733  24.528  0.00  0.00    -0.318 N 
HETATM   14  C   UNL     1       2.468   4.912  25.637  0.00  0.00     0.159 C 
BRANCH  13  15
HETATM   15  C   UNL     1       2.775   7.149  24.649  0.00  0.00     0.037 A 
HETATM   16  C   UNL     1       1.513   7.694  24.913  0.00  0.00     0.030 A 
HETATM   17  C   UNL     1       1.306   9.074  24.875  0.00  0.00     0.011 A 
HETATM   18  C   UNL     1       2.364   9.948  24.607  0.00  0.00    -0.044 A 
HETATM   19  C   UNL     1       3.650   9.415  24.459  0.00  0.00     0.011 A 
HETATM   20  C   UNL     1       3.855   8.028  24.492  0.00  0.00     0.030 A 
BRANCH  18  21
HETATM   21  C   UNL     1       2.100  11.418  24.383  0.00  0.00     0.142 C 
BRANCH  21  22
HETATM   22  N   UNL     1       0.806  11.659  23.736  0.00  0.00    -0.216 NA
HETATM   23  H   UNL     1       0.250  10.817  23.579  0.00  0.00     0.139 HD
BRANCH  22  24
HETATM   24  S   UNL     1      -0.152  12.865  24.412  0.00  0.00     0.205 S 
HETATM   25  O   UNL     1      -0.437  12.430  25.760  0.00  0.00    -0.212 OA
HETATM   26  O   UNL     1       0.502  14.131  24.149  0.00  0.00    -0.212 OA
HETATM   27  C   UNL     1      -1.650  12.767  23.447  0.00  0.00     0.179 C 
ENDBRANCH  22  24
ENDBRANCH  21  22
ENDBRANCH  18  21
ENDBRANCH  13  15
ENDBRANCH   8  11
BRANCH   9  28
HETATM   28  O   UNL     1       6.258   5.564  23.653  0.00  0.00    -0.360 OA
HETATM   29  H   UNL     1       5.908   6.139  24.371  0.00  0.00     0.217 HD
ENDBRANCH   9  28
BRANCH   1  30
HETATM   30  C   UNL     1       2.878   8.502  18.707  0.00  0.00     0.100 C 
BRANCH  30  31
HETATM   31  C   UNL     1       1.998   7.610  17.870  0.00  0.00    -0.052 A 
HETATM   32  C   UNL     1       1.075   6.756  18.498  0.00  0.00     0.014 A 
HETATM   33  C   UNL     1       0.486   5.694  17.798  0.00  0.00    -0.061 A 
HETATM   34  C   UNL     1      -0.319   4.654  18.521  0.00  0.00     0.048 C 
HETATM   35  C   UNL     1       0.764   5.538  16.435  0.00  0.00     0.007 A 
HETATM   36  C   UNL     1       1.619   6.428  15.784  0.00  0.00     0.001 A 
HETATM   37  C   UNL     1       2.238   7.456  16.498  0.00  0.00     0.007 A 
ENDBRANCH  30  31
ENDBRANCH   1  30
TORSDOF 8
ENDMDL
MODEL 2
REMARK VINA RESULT:    -8.048      3.349      7.548
REMARK INTER + INTRA:         -13.568
REMARK INTER:                 -11.568
REMARK INTRA:                  -2.000
REMARK UNBOUND:                -1.991
REMARK  8 active torsions:
REMARK  status: ('A' for Active; 'I' for Inactive)
REMARK    1  A    between atoms: C_7  and  C_8 
REMARK    2  A    between atoms: C_8  and  C_9 
REMARK    3  A    between atoms: C_16  and  C_20 
REMARK    4  A    between atoms: C_17  and  O_19 
REMARK       I    between atoms: C_20  and  N_22 
REMARK    5  A    between atoms: N_22  and  C_24 
REMARK    6  A    between atoms: C_27  and  C_30 
REMARK    7  A    between atoms: C_30  and  N_31 
REMARK    8  A    between atoms: N_31  and  S_32 
ROOT
HETATM    1  C   UNL     1       1.548   8.808  24.589  0.00  0.00     0.071 A 
HETATM    2  N   UNL     1       2.248   9.958  24.558  0.00  0.00    -0.178 NA
HETATM    3  N   UNL     1       3.526   9.555  24.496  0.00  0.00    -0.277 N 
HETATM    4  H   UNL     1       4.252  10.263  24.508  0.00  0.00     0.189 HD
HETATM    5  C   UNL     1       2.402   7.673  24.480  0.00  0.00     0.020 A 
HETATM    6  C   UNL     1       3.687   8.196  24.519  0.00  0.00     0.065 A 
HETATM    7  C   UNL     1       2.239   6.271  24.450  0.00  0.00     0.035 C 
HETATM    8  C   UNL     1       3.380   5.447  24.488  0.00  0.00     0.066 C 
HETATM    9  C   UNL     1       4.644   6.025  24.671  0.00  0.00     0.083 C 
HETATM   10  C   UNL     1       4.837   7.406  24.629  0.00  0.00     0.069 C 
ENDROOT
BRANCH   8  11
HETATM   11  C   UNL     1       3.255   3.963  24.384  0.00  0.00     0.260 C 
HETATM   12  O   UNL     1       3.368   3.348  25.448  0.00  0.00    -0.267 OA
HETATM   13  N   UNL     1       2.974   3.340  23.150  0.00  0.00    -0.318 N 
HETATM   14  C   UNL     1       2.553   1.940  23.173  0.00  0.00     0.159 C 
BRANCH  13  15
HETATM   15  C   UNL     1       3.195   3.926  21.863  0.00  0.00     0.037 A 
HETATM   16  C   UNL     1       4.451   3.853  21.248  0.00  0.00     0.030 A 
HETATM   17  C   UNL     1       4.715   4.556  20.071  0.00  0.00     0.011 A 
HETATM   18  C   UNL     1       3.719   5.322  19.458  0.00  0.00    -0.044 A 
HETATM   19  C   UNL     1       2.431   5.306  20.005  0.00  0.00     0.011 A 
HETATM   20  C   UNL     1       2.169   4.603  21.191  0.00  0.00     0.030 A 
BRANCH  18  21
HETATM   21  C   UNL     1       4.060   6.225  18.297  0.00  0.00     0.142 C 
BRANCH  21  22
HETATM   22  N   UNL     1       5.445   6.703  18.349  0.00  0.00    -0.216 NA
HETATM   23  H   UNL     1       5.882   6.833  17.435  0.00  0.00     0.139 HD
BRANCH  22  24
HETATM   24  S   UNL     1       5.735   8.044  19.323  0.00  0.00     0.205 S 
HETATM   25  O   UNL     1       6.617   8.897  18.561  0.00  0.00    -0.212 OA
HETATM   26  O   UNL     1       4.451   8.516  19.797  0.00  0.00    -0.212 OA
HETATM   27  C   UNL     1       6.647   7.350  20.691  0.00  0.00     0.179 C 
ENDBRANCH  22  24
ENDBRANCH  21  22
ENDBRANCH  18  21
ENDBRANCH  13  15
ENDBRANCH   8  11
BRANCH   9  28
HETATM   28  O   UNL     1       5.764   5.277  24.938  0.00  0.00    -0.360 OA
HETATM   29  H   UNL     1       6.129   4.988  24.071  0.00  0.00     0.217 HD
ENDBRANCH   9  28
BRANCH   1  30
HETATM   30  C   UNL     1       0.115   8.826  24.994  0.00  0.00     0.100 C 
BRANCH  30  31
HETATM   31  C   UNL     1      -0.048   9.264  26.426  0.00  0.00    -0.052 A 
HETATM   32  C   UNL     1       0.592   8.544  27.450  0.00  0.00     0.014 A 
HETATM   33  C   UNL     1       0.211   8.708  28.790  0.00  0.00    -0.061 A 
HETATM   34  C   UNL     1       0.732   7.783  29.851  0.00  0.00     0.048 C 
HETATM   35  C   UNL     1      -0.763   9.660  29.111  0.00  0.00     0.007 A 
HETATM   36  C   UNL     1      -1.348  10.435  28.109  0.00  0.00     0.001 A 
HETATM   37  C   UNL     1      -0.997  10.235  26.772  0.00  0.00     0.007 A 
ENDBRANCH  30  31
ENDBRANCH   1  30
TORSDOF 8
ENDMDL
MODEL 3
REMARK VINA RESULT:    -8.041      4.365      6.882
REMARK INTER + INTRA:         -13.557
REMARK INTER:                 -10.557
REMARK INTRA:                  -3.000
REMARK UNBOUND:                -1.991
REMARK  8 active torsions:
REMARK  status: ('A' for Active; 'I' for Inactive)
REMARK    1  A    between atoms: C_7  and  C_8 
REMARK    2  A    between atoms: C_8  and  C_9 
REMARK    3  A    between atoms: C_16  and  C_20 
REMARK    4  A    between atoms: C_17  and  O_19 
REMARK       I    between atoms: C_20  and  N_22 
REMARK    5  A    between atoms: N_22  and  C_24 
REMARK    6  A    between atoms: C_27  and  C_30 
REMARK    7  A    between atoms: C_30  and  N_31 
REMARK    8  A    between atoms: N_31  and  S_32 
ROOT
HETATM    1  C   UNL     1       1.485   5.203  16.151  0.00  0.00     0.071 A 
HETATM    2  N   UNL     1       0.346   5.768  15.706  0.00  0.00    -0.178 NA
HETATM    3  N   UNL     1       0.389   7.013  16.202  0.00  0.00    -0.277 N 
HETATM    4  H   UNL     1      -0.402   7.624  16.031  0.00  0.00     0.189 HD
HETATM    5  C   UNL     1       2.279   6.135  16.882  0.00  0.00     0.020 A 
HETATM    6  C   UNL     1       1.488   7.271  16.976  0.00  0.00     0.065 A 
HETATM    7  C   UNL     1       3.522   6.114  17.550  0.00  0.00     0.035 C 
HETATM    8  C   UNL     1       3.910   7.232  18.312  0.00  0.00     0.066 C 
HETATM    9  C   UNL     1       3.011   8.294  18.489  0.00  0.00     0.083 C 
HETATM   10  C   UNL     1       1.812   8.369  17.780  0.00  0.00     0.069 C 
ENDROOT
BRANCH   8  11
HETATM   11  C   UNL     1       5.247   7.280  18.974  0.00  0.00     0.260 C 
HETATM   12  O   UNL     1       6.061   8.057  18.467  0.00  0.00    -0.267 OA
HETATM   13  N   UNL     1       5.514   6.520  20.132  0.00  0.00    -0.318 N 
HETATM   14  C   UNL     1       6.711   6.849  20.904  0.00  0.00     0.159 C 
BRANCH  13  15
HETATM   15  C   UNL     1       4.781   5.360  20.542  0.00  0.00     0.037 A 
HETATM   16  C   UNL     1       3.678   5.473  21.396  0.00  0.00     0.030 A 
HETATM   17  C   UNL     1       3.059   4.339  21.924  0.00  0.00     0.011 A 
HETATM   18  C   UNL     1       3.506   3.059  21.583  0.00  0.00    -0.044 A 
HETATM   19  C   UNL     1       4.533   2.938  20.640  0.00  0.00     0.011 A 
HETATM   20  C   UNL     1       5.156   4.079  20.114  0.00  0.00     0.030 A 
BRANCH  18  21
HETATM   21  C   UNL     1       2.959   1.846  22.298  0.00  0.00     0.142 C 
BRANCH  21  22
HETATM   22  N   UNL     1       1.946   2.198  23.297  0.00  0.00    -0.216 NA
HETATM   23  H   UNL     1       1.005   1.864  23.079  0.00  0.00     0.139 HD
BRANCH  22  24
HETATM   24  S   UNL     1       2.324   1.850  24.899  0.00  0.00     0.205 S 
HETATM   25  O   UNL     1       1.079   1.461  25.520  0.00  0.00    -0.212 OA
HETATM   26  O   UNL     1       3.470   0.964  24.886  0.00  0.00    -0.212 OA
HETATM   27  C   UNL     1       2.817   3.439  25.542  0.00  0.00     0.179 C 
ENDBRANCH  22  24
ENDBRANCH  21  22
ENDBRANCH  18  21
ENDBRANCH  13  15
ENDBRANCH   8  11
BRANCH   9  28
HETATM   28  O   UNL     1       3.233   9.305  19.391  0.00  0.00    -0.360 OA
HETATM   29  H   UNL     1       4.162   9.214  19.700  0.00  0.00     0.217 HD
ENDBRANCH   9  28
BRANCH   1  30
HETATM   30  C   UNL     1       1.649   3.724  16.094  0.00  0.00     0.100 C 
BRANCH  30  31
HETATM   31  C   UNL     1       1.428   3.093  17.444  0.00  0.00    -0.052 A 
HETATM   32  C   UNL     1       2.158   1.946  17.803  0.00  0.00     0.014 A 
HETATM   33  C   UNL     1       1.758   1.149  18.885  0.00  0.00    -0.061 A 
HETATM   34  C   UNL     1       2.398  -0.187  19.128  0.00  0.00     0.048 C 
HETATM   35  C   UNL     1       0.664   1.550  19.660  0.00  0.00     0.007 A 
HETATM   36  C   UNL     1      -0.019   2.728  19.359  0.00  0.00     0.001 A 
HETATM   37  C   UNL     1       0.356   3.494  18.253  0.00  0.00     0.007 A 
ENDBRANCH  30  31
ENDBRANCH   1  30
TORSDOF 8
ENDMDL
MODEL 4
REMARK VINA RESULT:    -7.982      3.370      7.410
REMARK INTER + INTRA:         -13.473
REMARK INTER:                 -11.126
REMARK INTRA:                  -2.347
REMARK UNBOUND:                -1.991
REMARK  8 active torsions:
REMARK  status: ('A' for Active; 'I' for Inactive)
REMARK    1  A    between atoms: C_7  and  C_8 
REMARK    2  A    between atoms: C_8  and  C_9 
REMARK    3  A    between atoms: C_16  and  C_20 
REMARK    4  A    between atoms: C_17  and  O_19 
REMARK       I    between atoms: C_20  and  N_22 
REMARK    5  A    between atoms: N_22  and  C_24 
REMARK    6  A    between atoms: C_27  and  C_30 
REMARK    7  A    between atoms: C_30  and  N_31 
REMARK    8  A    between atoms: N_31  and  S_32 
ROOT
HETATM    1  C   UNL     1       1.698   8.814  24.594  0.00  0.00     0.071 A 
HETATM    2  N   UNL     1       2.422   9.948  24.525  0.00  0.00    -0.178 NA
HETATM    3  N   UNL     1       3.686   9.515  24.413  0.00  0.00    -0.277 N 
HETATM    4  H   UNL     1       4.428  10.206  24.389  0.00  0.00     0.189 HD
HETATM    5  C   UNL     1       2.521   7.659  24.457  0.00  0.00     0.020 A 
HETATM    6  C   UNL     1       3.818   8.153  24.438  0.00  0.00     0.065 A 
HETATM    7  C   UNL     1       2.325   6.261  24.444  0.00  0.00     0.035 C 
HETATM    8  C   UNL     1       3.448   5.411  24.440  0.00  0.00     0.066 C 
HETATM    9  C   UNL     1       4.731   5.961  24.566  0.00  0.00     0.083 C 
HETATM   10  C   UNL     1       4.953   7.337  24.506  0.00  0.00     0.069 C 
ENDROOT
BRANCH   8  11
HETATM   11  C   UNL     1       3.286   3.930  24.352  0.00  0.00     0.260 C 
HETATM   12  O   UNL     1       3.407   3.321  25.419  0.00  0.00    -0.267 OA
HETATM   13  N   UNL     1       2.963   3.304  23.130  0.00  0.00    -0.318 N 
HETATM   14  C   UNL     1       2.510   1.915  23.174  0.00  0.00     0.159 C 
BRANCH  13  15
HETATM   15  C   UNL     1       3.170   3.874  21.833  0.00  0.00     0.037 A 
HETATM   16  C   UNL     1       4.387   3.708  21.163  0.00  0.00     0.030 A 
HETATM   17  C   UNL     1       4.651   4.390  19.974  0.00  0.00     0.011 A 
HETATM   18  C   UNL     1       3.689   5.231  19.405  0.00  0.00    -0.044 A 
HETATM   19  C   UNL     1       2.429   5.309  20.008  0.00  0.00     0.011 A 
HETATM   20  C   UNL     1       2.168   4.626  21.206  0.00  0.00     0.030 A 
BRANCH  18  21
HETATM   21  C   UNL     1       4.045   6.107  18.228  0.00  0.00     0.142 C 
BRANCH  21  22
HETATM   22  N   UNL     1       5.407   6.640  18.321  0.00  0.00    -0.216 NA
HETATM   23  H   UNL     1       5.868   6.780  17.420  0.00  0.00     0.139 HD
BRANCH  22  24
HETATM   24  S   UNL     1       5.611   8.001  19.289  0.00  0.00     0.205 S 
HETATM   25  O   UNL     1       6.526   8.858  18.572  0.00  0.00    -0.212 OA
HETATM   26  O   UNL     1       4.290   8.458  19.671  0.00  0.00    -0.212 OA
HETATM   27  C   UNL     1       6.442   7.344  20.724  0.00  0.00     0.179 C 
ENDBRANCH  22  24
ENDBRANCH  21  22
ENDBRANCH  18  21
ENDBRANCH  13  15
ENDBRANCH   8  11
BRANCH   9  28
HETATM   28  O   UNL     1       5.845   5.190  24.791  0.00  0.00    -0.360 OA
HETATM   29  H   UNL     1       6.627   5.747  24.578  0.00  0.00     0.217 HD
ENDBRANCH   9  28
BRANCH   1  30
HETATM   30  C   UNL     1       0.283   8.867  25.058  0.00  0.00     0.100 C 
BRANCH  30  31
HETATM   31  C   UNL     1       0.128   8.248  26.423  0.00  0.00    -0.052 A 
HETATM   32  C   UNL     1       0.778   8.826  27.527  0.00  0.00     0.014 A 
HETATM   33  C   UNL     1       0.931   8.115  28.725  0.00  0.00    -0.061 A 
HETATM   34  C   UNL     1       1.815   8.640  29.819  0.00  0.00     0.048 C 
HETATM   35  C   UNL     1       0.356   6.844  28.842  0.00  0.00     0.007 A 
HETATM   36  C   UNL     1      -0.358   6.294  27.778  0.00  0.00     0.001 A 
HETATM   37  C   UNL     1      -0.468   6.988  26.572  0.00  0.00     0.007 A 
ENDBRANCH  30  31
ENDBRANCH   1  30
TORSDOF 8
ENDMDL
MODEL 5
REMARK VINA RESULT:    -7.829      4.153      6.602
REMARK INTER + INTRA:         -13.252
REMARK INTER:                 -10.517
REMARK INTRA:                  -2.735
REMARK UNBOUND:                -1.991
REMARK  8 active torsions:
REMARK  status: ('A' for Active; 'I' for Inactive)
REMARK    1  A    between atoms: C_7  and  C_8 
REMARK    2  A    between atoms: C_8  and  C_9 
REMARK    3  A    between atoms: C_16  and  C_20 
REMARK    4  A    between atoms: C_17  and  O_19 
REMARK       I    between atoms: C_20  and  N_22 
REMARK    5  A    between atoms: N_22  and  C_24 
REMARK    6  A    between atoms: C_27  and  C_30 
REMARK    7  A    between atoms: C_30  and  N_31 
REMARK    8  A    between atoms: N_31  and  S_32 
ROOT
HETATM    1  C   UNL     1       4.692   7.885  22.076  0.00  0.00     0.071 A 
HETATM    2  N   UNL     1       3.843   8.802  22.578  0.00  0.00    -0.178 NA
HETATM    3  N   UNL     1       3.018   8.084  23.356  0.00  0.00    -0.277 N 
HETATM    4  H   UNL     1       2.252   8.566  23.813  0.00  0.00     0.189 HD
HETATM    5  C   UNL     1       4.430   6.587  22.602  0.00  0.00     0.020 A 
HETATM    6  C   UNL     1       3.275   6.740  23.355  0.00  0.00     0.065 A 
HETATM    7  C   UNL     1       4.977   5.294  22.451  0.00  0.00     0.035 C 
HETATM    8  C   UNL     1       4.322   4.199  23.044  0.00  0.00     0.066 C 
HETATM    9  C   UNL     1       3.083   4.391  23.672  0.00  0.00     0.083 C 
HETATM   10  C   UNL     1       2.561   5.665  23.897  0.00  0.00     0.069 C 
ENDROOT
BRANCH   8  11
HETATM   11  C   UNL     1       4.905   2.826  22.970  0.00  0.00     0.260 C 
HETATM   12  O   UNL     1       5.708   2.544  23.864  0.00  0.00    -0.267 OA
HETATM   13  N   UNL     1       4.506   1.918  21.967  0.00  0.00    -0.318 N 
HETATM   14  C   UNL     1       4.866   0.512  22.137  0.00  0.00     0.159 C 
BRANCH  13  15
HETATM   15  C   UNL     1       3.892   2.281  20.726  0.00  0.00     0.037 A 
HETATM   16  C   UNL     1       2.517   2.535  20.652  0.00  0.00     0.030 A 
HETATM   17  C   UNL     1       1.888   2.733  19.422  0.00  0.00     0.011 A 
HETATM   18  C   UNL     1       2.625   2.717  18.233  0.00  0.00    -0.044 A 
HETATM   19  C   UNL     1       4.016   2.580  18.310  0.00  0.00     0.011 A 
HETATM   20  C   UNL     1       4.645   2.376  19.548  0.00  0.00     0.030 A 
BRANCH  18  21
HETATM   21  C   UNL     1       1.918   2.743  16.899  0.00  0.00     0.142 C 
BRANCH  21  22
HETATM   22  N   UNL     1       1.684   4.108  16.419  0.00  0.00    -0.216 NA
HETATM   23  H   UNL     1       2.031   4.289  15.476  0.00  0.00     0.139 HD
BRANCH  22  24
HETATM   24  S   UNL     1       0.115   4.696  16.578  0.00  0.00     0.205 S 
HETATM   25  O   UNL     1      -0.753   3.572  16.313  0.00  0.00    -0.212 OA
HETATM   26  O   UNL     1       0.053   5.420  17.831  0.00  0.00    -0.212 OA
HETATM   27  C   UNL     1      -0.012   5.852  15.225  0.00  0.00     0.179 C 
ENDBRANCH  22  24
ENDBRANCH  21  22
ENDBRANCH  18  21
ENDBRANCH  13  15
ENDBRANCH   8  11
BRANCH   9  28
HETATM   28  O   UNL     1       2.289   3.345  24.072  0.00  0.00    -0.360 OA
HETATM   29  H   UNL     1       2.596   3.079  24.968  0.00  0.00     0.217 HD
ENDBRANCH   9  28
BRANCH   1  30
HETATM   30  C   UNL     1       5.549   8.232  20.908  0.00  0.00     0.100 C 
BRANCH  30  31
HETATM   31  C   UNL     1       4.933   7.764  19.615  0.00  0.00    -0.052 A 
HETATM   32  C   UNL     1       3.815   8.438  19.093  0.00  0.00     0.014 A 
HETATM   33  C   UNL     1       3.024   7.852  18.094  0.00  0.00    -0.061 A 
HETATM   34  C   UNL     1       1.712   8.466  17.700  0.00  0.00     0.048 C 
HETATM   35  C   UNL     1       3.405   6.616  17.560  0.00  0.00     0.007 A 
HETATM   36  C   UNL     1       4.557   5.976  18.016  0.00  0.00     0.001 A 
HETATM   37  C   UNL     1       5.315   6.543  19.043  0.00  0.00     0.007 A 
ENDBRANCH  30  31
ENDBRANCH   1  30
TORSDOF 8
ENDMDL
MODEL 6
REMARK VINA RESULT:    -7.783      3.809      5.473
REMARK INTER + INTRA:         -13.186
REMARK INTER:                 -11.041
REMARK INTRA:                  -2.146
REMARK UNBOUND:                -1.991
REMARK  8 active torsions:
REMARK  status: ('A' for Active; 'I' for Inactive)
REMARK    1  A    between atoms: C_7  and  C_8 
REMARK    2  A    between atoms: C_8  and  C_9 
REMARK    3  A    between atoms: C_16  and  C_20 
REMARK    4  A    between atoms: C_17  and  O_19 
REMARK       I    between atoms: C_20  and  N_22 
REMARK    5  A    between atoms: N_22  and  C_24 
REMARK    6  A    between atoms: C_27  and  C_30 
REMARK    7  A    between atoms: C_30  and  N_31 
REMARK    8  A    between atoms: N_31  and  S_32 
ROOT
HETATM    1  C   UNL     1       3.996   4.752  24.024  0.00  0.00     0.071 A 
HETATM    2  N   UNL     1       3.367   3.716  23.435  0.00  0.00    -0.178 NA
HETATM    3  N   UNL     1       2.573   3.232  24.401  0.00  0.00    -0.277 N 
HETATM    4  H   UNL     1       2.024   2.404  24.199  0.00  0.00     0.189 HD
HETATM    5  C   UNL     1       3.536   4.953  25.357  0.00  0.00     0.020 A 
HETATM    6  C   UNL     1       2.681   3.886  25.598  0.00  0.00     0.065 A 
HETATM    7  C   UNL     1       3.815   5.852  26.409  0.00  0.00     0.035 C 
HETATM    8  C   UNL     1       3.242   5.626  27.675  0.00  0.00     0.066 C 
HETATM    9  C   UNL     1       2.504   4.455  27.900  0.00  0.00     0.083 C 
HETATM   10  C   UNL     1       2.154   3.593  26.861  0.00  0.00     0.069 C 
ENDROOT
BRANCH   8  11
HETATM   11  C   UNL     1       3.453   6.591  28.794  0.00  0.00     0.260 C 
HETATM   12  O   UNL     1       4.110   6.161  29.747  0.00  0.00    -0.267 OA
HETATM   13  N   UNL     1       2.969   7.913  28.715  0.00  0.00    -0.318 N 
HETATM   14  C   UNL     1       3.476   8.885  29.684  0.00  0.00     0.159 C 
BRANCH  13  15
HETATM   15  C   UNL     1       1.919   8.355  27.849  0.00  0.00     0.037 A 
HETATM   16  C   UNL     1       0.576   8.150  28.186  0.00  0.00     0.030 A 
HETATM   17  C   UNL     1      -0.445   8.434  27.277  0.00  0.00     0.011 A 
HETATM   18  C   UNL     1      -0.150   8.966  26.018  0.00  0.00    -0.044 A 
HETATM   19  C   UNL     1       1.180   9.282  25.719  0.00  0.00     0.011 A 
HETATM   20  C   UNL     1       2.204   8.991  26.633  0.00  0.00     0.030 A 
BRANCH  18  21
HETATM   21  C   UNL     1      -1.235   9.095  24.974  0.00  0.00     0.142 C 
BRANCH  21  22
HETATM   22  N   UNL     1      -0.876  10.039  23.912  0.00  0.00    -0.216 NA
HETATM   23  H   UNL     1      -0.825   9.625  22.979  0.00  0.00     0.139 HD
BRANCH  22  24
HETATM   24  S   UNL     1      -1.757  11.471  23.858  0.00  0.00     0.205 S 
HETATM   25  O   UNL     1      -2.125  11.653  22.473  0.00  0.00    -0.212 OA
HETATM   26  O   UNL     1      -2.757  11.399  24.903  0.00  0.00    -0.212 OA
HETATM   27  C   UNL     1      -0.539  12.700  24.295  0.00  0.00     0.179 C 
ENDBRANCH  22  24
ENDBRANCH  21  22
ENDBRANCH  18  21
ENDBRANCH  13  15
ENDBRANCH   8  11
BRANCH   9  28
HETATM   28  O   UNL     1       2.108   4.063  29.155  0.00  0.00    -0.360 OA
HETATM   29  H   UNL     1       2.919   4.015  29.709  0.00  0.00     0.217 HD
ENDBRANCH   9  28
BRANCH   1  30
HETATM   30  C   UNL     1       5.205   5.342  23.385  0.00  0.00     0.100 C 
BRANCH  30  31
HETATM   31  C   UNL     1       4.854   6.537  22.538  0.00  0.00    -0.052 A 
HETATM   32  C   UNL     1       5.457   6.698  21.279  0.00  0.00     0.014 A 
HETATM   33  C   UNL     1       5.417   7.932  20.615  0.00  0.00    -0.061 A 
HETATM   34  C   UNL     1       6.246   8.167  19.386  0.00  0.00     0.048 C 
HETATM   35  C   UNL     1       4.696   8.989  21.183  0.00  0.00     0.007 A 
HETATM   36  C   UNL     1       4.029   8.816  22.395  0.00  0.00     0.001 A 
HETATM   37  C   UNL     1       4.111   7.598  23.073  0.00  0.00     0.007 A 
ENDBRANCH  30  31
ENDBRANCH   1  30
TORSDOF 8
ENDMDL
MODEL 7
REMARK VINA RESULT:    -7.768      2.332      3.476
REMARK INTER + INTRA:         -13.166
REMARK INTER:                 -11.138
REMARK INTRA:                  -2.028
REMARK UNBOUND:                -1.991
REMARK  8 active torsions:
REMARK  status: ('A' for Active; 'I' for Inactive)
REMARK    1  A    between atoms: C_7  and  C_8 
REMARK    2  A    between atoms: C_8  and  C_9 
REMARK    3  A    between atoms: C_16  and  C_20 
REMARK    4  A    between atoms: C_17  and  O_19 
REMARK       I    between atoms: C_20  and  N_22 
REMARK    5  A    between atoms: N_22  and  C_24 
REMARK    6  A    between atoms: C_27  and  C_30 
REMARK    7  A    between atoms: C_30  and  N_31 
REMARK    8  A    between atoms: N_31  and  S_32 
ROOT
HETATM    1  C   UNL     1       0.791   6.158  18.334  0.00  0.00     0.071 A 
HETATM    2  N   UNL     1       0.511   7.063  17.376  0.00  0.00    -0.178 NA
HETATM    3  N   UNL     1       1.484   7.978  17.505  0.00  0.00    -0.277 N 
HETATM    4  H   UNL     1       1.454   8.795  16.905  0.00  0.00     0.189 HD
HETATM    5  C   UNL     1       1.994   6.484  19.025  0.00  0.00     0.020 A 
HETATM    6  C   UNL     1       2.362   7.724  18.523  0.00  0.00     0.065 A 
HETATM    7  C   UNL     1       2.752   5.922  20.075  0.00  0.00     0.035 C 
HETATM    8  C   UNL     1       3.840   6.646  20.598  0.00  0.00     0.066 C 
HETATM    9  C   UNL     1       4.079   7.954  20.152  0.00  0.00     0.083 C 
HETATM   10  C   UNL     1       3.392   8.499  19.067  0.00  0.00     0.069 C 
ENDROOT
BRANCH   8  11
HETATM   11  C   UNL     1       4.711   6.058  21.658  0.00  0.00     0.260 C 
HETATM   12  O   UNL     1       5.528   5.220  21.266  0.00  0.00    -0.267 OA
HETATM   13  N   UNL     1       4.622   6.491  22.997  0.00  0.00    -0.318 N 
HETATM   14  C   UNL     1       5.701   6.117  23.910  0.00  0.00     0.159 C 
BRANCH  13  15
HETATM   15  C   UNL     1       3.492   7.155  23.574  0.00  0.00     0.037 A 
HETATM   16  C   UNL     1       3.512   8.536  23.806  0.00  0.00     0.030 A 
HETATM   17  C   UNL     1       2.481   9.160  24.510  0.00  0.00     0.011 A 
HETATM   18  C   UNL     1       1.384   8.426  24.970  0.00  0.00    -0.044 A 
HETATM   19  C   UNL     1       1.302   7.068  24.640  0.00  0.00     0.011 A 
HETATM   20  C   UNL     1       2.342   6.441  23.937  0.00  0.00     0.030 A 
BRANCH  18  21
HETATM   21  C   UNL     1       0.370   9.067  25.888  0.00  0.00     0.142 C 
BRANCH  21  22
HETATM   22  N   UNL     1      -0.853   9.457  25.182  0.00  0.00    -0.216 NA
HETATM   23  H   UNL     1      -1.710   9.057  25.569  0.00  0.00     0.139 HD
BRANCH  22  24
HETATM   24  S   UNL     1      -1.060  11.103  24.902  0.00  0.00     0.205 S 
HETATM   25  O   UNL     1      -1.102  11.720  26.207  0.00  0.00    -0.212 OA
HETATM   26  O   UNL     1      -0.080  11.496  23.911  0.00  0.00    -0.212 OA
HETATM   27  C   UNL     1      -2.689  11.179  24.178  0.00  0.00     0.179 C 
ENDBRANCH  22  24
ENDBRANCH  21  22
ENDBRANCH  18  21
ENDBRANCH  13  15
ENDBRANCH   8  11
BRANCH   9  28
HETATM   28  O   UNL     1       4.974   8.791  20.770  0.00  0.00    -0.360 OA
HETATM   29  H   UNL     1       4.925   9.656  20.304  0.00  0.00     0.217 HD
ENDBRANCH   9  28
BRANCH   1  30
HETATM   30  C   UNL     1      -0.242   5.163  18.734  0.00  0.00     0.100 C 
BRANCH  30  31
HETATM   31  C   UNL     1       0.273   3.753  18.608  0.00  0.00    -0.052 A 
HETATM   32  C   UNL     1       0.457   2.974  19.764  0.00  0.00     0.014 A 
HETATM   33  C   UNL     1       1.229   1.804  19.728  0.00  0.00    -0.061 A 
HETATM   34  C   UNL     1       1.611   1.100  20.997  0.00  0.00     0.048 C 
HETATM   35  C   UNL     1       1.753   1.371  18.504  0.00  0.00     0.007 A 
HETATM   36  C   UNL     1       1.509   2.095  17.337  0.00  0.00     0.001 A 
HETATM   37  C   UNL     1       0.778   3.284  17.389  0.00  0.00     0.007 A 
ENDBRANCH  30  31
ENDBRANCH   1  30
TORSDOF 8
ENDMDL
MODEL 8
REMARK VINA RESULT:    -7.661      3.552      7.636
REMARK INTER + INTRA:         -13.011
REMARK INTER:                 -11.020
REMARK INTRA:                  -1.991
REMARK UNBOUND:                -1.991
REMARK  8 active torsions:
REMARK  status: ('A' for Active; 'I' for Inactive)
REMARK    1  A    between atoms: C_7  and  C_8 
REMARK    2  A    between atoms: C_8  and  C_9 
REMARK    3  A    between atoms: C_16  and  C_20 
REMARK    4  A    between atoms: C_17  and  O_19 
REMARK       I    between atoms: C_20  and  N_22 
REMARK    5  A    between atoms: N_22  and  C_24 
REMARK    6  A    between atoms: C_27  and  C_30 
REMARK    7  A    between atoms: C_30  and  N_31 
REMARK    8  A    between atoms: N_31  and  S_32 
ROOT
HETATM    1  C   UNL     1       1.491   8.866  24.595  0.00  0.00     0.071 A 
HETATM    2  N   UNL     1       2.156  10.037  24.550  0.00  0.00    -0.178 NA
HETATM    3  N   UNL     1       3.444   9.672  24.477  0.00  0.00    -0.277 N 
HETATM    4  H   UNL     1       4.148  10.402  24.478  0.00  0.00     0.189 HD
HETATM    5  C   UNL     1       2.379   7.757  24.483  0.00  0.00     0.020 A 
HETATM    6  C   UNL     1       3.647   8.319  24.506  0.00  0.00     0.065 A 
HETATM    7  C   UNL     1       2.258   6.350  24.462  0.00  0.00     0.035 C 
HETATM    8  C   UNL     1       3.424   5.562  24.493  0.00  0.00     0.066 C 
HETATM    9  C   UNL     1       4.672   6.179  24.660  0.00  0.00     0.083 C 
HETATM   10  C   UNL     1       4.822   7.565  24.608  0.00  0.00     0.069 C 
ENDROOT
BRANCH   8  11
HETATM   11  C   UNL     1       3.344   4.074  24.399  0.00  0.00     0.260 C 
HETATM   12  O   UNL     1       3.478   3.469  25.467  0.00  0.00    -0.267 OA
HETATM   13  N   UNL     1       3.078   3.435  23.170  0.00  0.00    -0.318 N 
HETATM   14  C   UNL     1       2.700   2.023  23.202  0.00  0.00     0.159 C 
BRANCH  13  15
HETATM   15  C   UNL     1       3.279   4.020  21.879  0.00  0.00     0.037 A 
HETATM   16  C   UNL     1       4.569   4.216  21.373  0.00  0.00     0.030 A 
HETATM   17  C   UNL     1       4.775   4.927  20.189  0.00  0.00     0.011 A 
HETATM   18  C   UNL     1       3.693   5.430  19.461  0.00  0.00    -0.044 A 
HETATM   19  C   UNL     1       2.397   5.136  19.900  0.00  0.00     0.011 A 
HETATM   20  C   UNL     1       2.192   4.426  21.092  0.00  0.00     0.030 A 
BRANCH  18  21
HETATM   21  C   UNL     1       3.927   6.353  18.288  0.00  0.00     0.142 C 
BRANCH  21  22
HETATM   22  N   UNL     1       3.127   5.982  17.118  0.00  0.00    -0.216 NA
HETATM   23  H   UNL     1       2.735   5.040  17.156  0.00  0.00     0.139 HD
BRANCH  22  24
HETATM   24  S   UNL     1       1.942   7.080  16.646  0.00  0.00     0.205 S 
HETATM   25  O   UNL     1       2.135   8.246  17.476  0.00  0.00    -0.212 OA
HETATM   26  O   UNL     1       1.989   7.166  15.201  0.00  0.00    -0.212 OA
HETATM   27  C   UNL     1       0.432   6.267  17.138  0.00  0.00     0.179 C 
ENDBRANCH  22  24
ENDBRANCH  21  22
ENDBRANCH  18  21
ENDBRANCH  13  15
ENDBRANCH   8  11
BRANCH   9  28
HETATM   28  O   UNL     1       5.817   5.467  24.920  0.00  0.00    -0.360 OA
HETATM   29  H   UNL     1       5.705   4.583  24.504  0.00  0.00     0.217 HD
ENDBRANCH   9  28
BRANCH   1  30
HETATM   30  C   UNL     1       0.062   8.842  25.014  0.00  0.00     0.100 C 
BRANCH  30  31
HETATM   31  C   UNL     1      -0.102   9.306  26.438  0.00  0.00    -0.052 A 
HETATM   32  C   UNL     1       0.468   8.558  27.483  0.00  0.00     0.014 A 
HETATM   33  C   UNL     1       0.071   8.761  28.812  0.00  0.00    -0.061 A 
HETATM   34  C   UNL     1       0.508   7.817  29.894  0.00  0.00     0.048 C 
HETATM   35  C   UNL     1      -0.846   9.778  29.102  0.00  0.00     0.007 A 
HETATM   36  C   UNL     1      -1.358  10.578  28.081  0.00  0.00     0.001 A 
HETATM   37  C   UNL     1      -0.993  10.340  26.754  0.00  0.00     0.007 A 
ENDBRANCH  30  31
ENDBRANCH   1  30
TORSDOF 8
ENDMDL
MODEL 9
REMARK VINA RESULT:    -7.646      2.131      2.994
REMARK INTER + INTRA:         -12.990
REMARK INTER:                 -11.613
REMARK INTRA:                  -1.377
REMARK UNBOUND:                -1.991
REMARK  8 active torsions:
REMARK  status: ('A' for Active; 'I' for Inactive)
REMARK    1  A    between atoms: C_7  and  C_8 
REMARK    2  A    between atoms: C_8  and  C_9 
REMARK    3  A    between atoms: C_16  and  C_20 
REMARK    4  A    between atoms: C_17  and  O_19 
REMARK       I    between atoms: C_20  and  N_22 
REMARK    5  A    between atoms: N_22  and  C_24 
REMARK    6  A    between atoms: C_27  and  C_30 
REMARK    7  A    between atoms: C_30  and  N_31 
REMARK    8  A    between atoms: N_31  and  S_32 
ROOT
HETATM    1  C   UNL     1       3.735   5.644  21.165  0.00  0.00     0.071 A 
HETATM    2  N   UNL     1       4.827   6.179  20.585  0.00  0.00    -0.178 NA
HETATM    3  N   UNL     1       5.562   6.609  21.621  0.00  0.00    -0.277 N 
HETATM    4  H   UNL     1       6.429   7.097  21.422  0.00  0.00     0.189 HD
HETATM    5  C   UNL     1       3.825   5.686  22.586  0.00  0.00     0.020 A 
HETATM    6  C   UNL     1       4.983   6.407  22.844  0.00  0.00     0.065 A 
HETATM    7  C   UNL     1       3.019   5.283  23.673  0.00  0.00     0.035 C 
HETATM    8  C   UNL     1       3.397   5.647  24.979  0.00  0.00     0.066 C 
HETATM    9  C   UNL     1       4.496   6.497  25.170  0.00  0.00     0.083 C 
HETATM   10  C   UNL     1       5.348   6.845  24.121  0.00  0.00     0.069 C 
ENDROOT
BRANCH   8  11
HETATM   11  C   UNL     1       2.613   5.181  26.161  0.00  0.00     0.260 C 
HETATM   12  O   UNL     1       2.895   4.052  26.571  0.00  0.00    -0.267 OA
HETATM   13  N   UNL     1       1.659   6.018  26.778  0.00  0.00    -0.318 N 
HETATM   14  C   UNL     1       1.166   5.632  28.099  0.00  0.00     0.159 C 
BRANCH  13  15
HETATM   15  C   UNL     1       1.031   7.146  26.160  0.00  0.00     0.037 A 
HETATM   16  C   UNL     1       1.539   8.438  26.339  0.00  0.00     0.030 A 
HETATM   17  C   UNL     1       0.843   9.554  25.872  0.00  0.00     0.011 A 
HETATM   18  C   UNL     1      -0.363   9.405  25.181  0.00  0.00    -0.044 A 
HETATM   19  C   UNL     1      -0.816   8.112  24.897  0.00  0.00     0.011 A 
HETATM   20  C   UNL     1      -0.118   6.992  25.372  0.00  0.00     0.030 A 
BRANCH  18  21
HETATM   21  C   UNL     1      -1.202  10.616  24.845  0.00  0.00     0.142 C 
BRANCH  21  22
HETATM   22  N   UNL     1      -1.434  10.750  23.404  0.00  0.00    -0.216 NA
HETATM   23  H   UNL     1      -2.165  10.139  23.036  0.00  0.00     0.139 HD
BRANCH  22  24
HETATM   24  S   UNL     1      -1.646  12.315  22.825  0.00  0.00     0.205 S 
HETATM   25  O   UNL     1      -1.161  12.299  21.464  0.00  0.00    -0.212 OA
HETATM   26  O   UNL     1      -3.005  12.707  23.138  0.00  0.00    -0.212 OA
HETATM   27  C   UNL     1      -0.516  13.264  23.827  0.00  0.00     0.179 C 
ENDBRANCH  22  24
ENDBRANCH  21  22
ENDBRANCH  18  21
ENDBRANCH  13  15
ENDBRANCH   8  11
BRANCH   9  28
HETATM   28  O   UNL     1       4.785   7.067  26.384  0.00  0.00    -0.360 OA
HETATM   29  H   UNL     1       4.710   6.356  27.060  0.00  0.00     0.217 HD
ENDBRANCH   9  28
BRANCH   1  30
HETATM   30  C   UNL     1       2.526   5.359  20.343  0.00  0.00     0.100 C 
BRANCH  30  31
HETATM   31  C   UNL     1       2.571   6.088  19.025  0.00  0.00    -0.052 A 
HETATM   32  C   UNL     1       2.445   7.488  19.000  0.00  0.00     0.014 A 
HETATM   33  C   UNL     1       2.154   8.162  17.806  0.00  0.00    -0.061 A 
HETATM   34  C   UNL     1       1.798   9.620  17.818  0.00  0.00     0.048 C 
HETATM   35  C   UNL     1       2.068   7.433  16.614  0.00  0.00     0.007 A 
HETATM   36  C   UNL     1       2.269   6.053  16.616  0.00  0.00     0.001 A 
HETATM   37  C   UNL     1       2.514   5.381  17.816  0.00  0.00     0.007 A 
ENDBRANCH  30  31
ENDBRANCH   1  30
TORSDOF 8
ENDMDL
