MODEL 1
REMARK minimizedAffinity -9.79822731
REMARK minimizedRMSD -1
REMARK  7 active torsions:
REMARK  status: ('A' for Active; 'I' for Inactive)
REMARK    1  A    between atoms: C_5  and  O_6 
REMARK    2  A    between atoms: C_13  and  C_14 
REMARK    3  A    between atoms: C_14  and  C_15 
REMARK    4  A    between atoms: C_15  and  C_16 
REMARK    5  A    between atoms: C_16  and  C_17 
REMARK    6  A    between atoms: C_17  and  N_18 
REMARK    7  A    between atoms: N_22  and  C_26 
ROOT
HETATM    1  N   UNL     1       6.023   9.058  22.633  0.00  0.00    -0.191 NA
HETATM    2  C   UNL     1       6.067  10.138  23.052  0.00  0.00     0.102 C 
HETATM    3  C   UNL     1       6.115  11.491  23.545  0.00  0.00     0.078 A 
HETATM    4  C   UNL     1       4.895  12.136  23.882  0.00  0.00     0.039 A 
HETATM    5  C   UNL     1       7.324  12.178  23.666  0.00  0.00     0.088 A 
HETATM    6  C   UNL     1       7.342  13.508  24.094  0.00  0.00     0.068 A 
HETATM    7  C   UNL     1       6.128  14.125  24.396  0.00  0.00     0.045 A 
HETATM    8  C   UNL     1       4.884  13.485  24.317  0.00  0.00    -0.000 A 
HETATM    9  N   UNL     1       5.894  15.423  24.786  0.00  0.00    -0.365 N 
HETATM   10  H   UNL     1       6.619  16.128  24.886  0.00  0.00     0.165 HD
HETATM   11  C   UNL     1       4.552  15.635  24.953  0.00  0.00     0.096 A 
HETATM   12  C   UNL     1       3.876  14.455  24.695  0.00  0.00    -0.030 A 
ENDROOT
BRANCH   5  13
HETATM   13  O   UNL     1       8.549  11.649  23.377  0.00  0.00    -0.359 OA
HETATM   14  H   UNL     1       8.508  10.708  23.136  0.00  0.00     0.217 HD
ENDBRANCH   5  13
BRANCH  12  15
HETATM   15  C   UNL     1       2.377  14.335  24.709  0.00  0.00     0.041 C 
BRANCH  15  16
HETATM   16  C   UNL     1       1.692  14.314  23.321  0.00  0.00     0.006 C 
BRANCH  16  17
HETATM   17  C   UNL     1       1.290  12.893  22.808  0.00  0.00     0.028 C 
BRANCH  17  18
HETATM   18  C   UNL     1       0.807  12.062  23.978  0.00  0.00     0.235 C 
BRANCH  18  19
HETATM   19  N   UNL     1       0.720  10.554  23.813  0.00  0.00    -0.068 N 
HETATM   20  H   UNL     1       0.497  10.366  22.818  0.00  0.00     0.280 HD
HETATM   21  C   UNL     1      -0.475  10.047  24.653  0.00  0.00     0.262 C 
HETATM   22  C   UNL     1      -0.180  10.246  26.166  0.00  0.00     0.263 C 
HETATM   23  N   UNL     1       1.166   9.631  26.567  0.00  0.00    -0.057 N 
HETATM   24  C   UNL     1       2.348   9.910  25.631  0.00  0.00     0.263 C 
HETATM   25  H   UNL     1       1.387  10.127  27.447  0.00  0.00     0.281 HD
HETATM   26  C   UNL     1       1.950   9.715  24.155  0.00  0.00     0.262 C 
BRANCH  23  27
HETATM   27  C   UNL     1       1.156   8.179  26.985  0.00  0.00     0.233 C 
HETATM   28  C   UNL     1      -0.158   7.766  27.601  0.00  0.00     0.007 C 
HETATM   29  C   UNL     1      -0.267   7.306  28.852  0.00  0.00    -0.007 C 
HETATM   30  C   UNL     1       0.950   6.988  29.647  0.00  0.00     0.123 C 
HETATM   31  C   UNL     1       0.758   7.146  31.147  0.00  0.00    -0.008 C 
HETATM   32  C   UNL     1       2.249   7.527  29.140  0.00  0.00    -0.007 C 
HETATM   33  N   UNL     1       0.600   7.278  32.390  0.00  0.00    -0.101 N 
HETATM   34  C   UNL     1       2.349   7.995  27.898  0.00  0.00     0.007 C 
ENDBRANCH  23  27
ENDBRANCH  18  19
ENDBRANCH  17  18
ENDBRANCH  16  17
ENDBRANCH  15  16
ENDBRANCH  12  15
TORSDOF 7
ENDMDL
MODEL 2
REMARK minimizedAffinity -9.51483727
REMARK minimizedRMSD -1
REMARK  7 active torsions:
REMARK  status: ('A' for Active; 'I' for Inactive)
REMARK    1  A    between atoms: C_5  and  O_6 
REMARK    2  A    between atoms: C_13  and  C_14 
REMARK    3  A    between atoms: C_14  and  C_15 
REMARK    4  A    between atoms: C_15  and  C_16 
REMARK    5  A    between atoms: C_16  and  C_17 
REMARK    6  A    between atoms: C_17  and  N_18 
REMARK    7  A    between atoms: N_22  and  C_26 
ROOT
HETATM    1  N   UNL     1       1.564  14.499  24.215  0.00  0.00    -0.191 NA
HETATM    2  C   UNL     1       2.687  14.527  24.503  0.00  0.00     0.102 C 
HETATM    3  C   UNL     1       4.078  14.538  24.877  0.00  0.00     0.078 A 
HETATM    4  C   UNL     1       4.969  13.653  24.213  0.00  0.00     0.039 A 
HETATM    5  C   UNL     1       4.551  15.372  25.891  0.00  0.00     0.088 A 
HETATM    6  C   UNL     1       5.894  15.327  26.275  0.00  0.00     0.068 A 
HETATM    7  C   UNL     1       6.742  14.432  25.624  0.00  0.00     0.045 A 
HETATM    8  C   UNL     1       6.335  13.584  24.584  0.00  0.00    -0.000 A 
HETATM    9  N   UNL     1       8.073  14.178  25.859  0.00  0.00    -0.365 N 
HETATM   10  H   UNL     1       8.619  14.625  26.589  0.00  0.00     0.165 HD
HETATM   11  C   UNL     1       8.527  13.200  25.014  0.00  0.00     0.096 A 
HETATM   12  C   UNL     1       7.491  12.808  24.184  0.00  0.00    -0.030 A 
ENDROOT
BRANCH   5  13
HETATM   13  O   UNL     1       3.783  16.263  26.584  0.00  0.00    -0.359 OA
HETATM   14  H   UNL     1       2.869  16.310  26.256  0.00  0.00     0.217 HD
ENDBRANCH   5  13
BRANCH  12  15
HETATM   15  C   UNL     1       7.608  11.697  23.177  0.00  0.00     0.041 C 
BRANCH  15  16
HETATM   16  C   UNL     1       8.190  10.366  23.710  0.00  0.00     0.006 C 
BRANCH  16  17
HETATM   17  C   UNL     1       7.785   9.097  22.892  0.00  0.00     0.028 C 
BRANCH  17  18
HETATM   18  C   UNL     1       6.549   8.481  23.513  0.00  0.00     0.235 C 
BRANCH  18  19
HETATM   19  N   UNL     1       5.313   8.300  22.648  0.00  0.00    -0.068 N 
HETATM   20  H   UNL     1       5.636   8.000  21.710  0.00  0.00     0.280 HD
HETATM   21  C   UNL     1       4.637   9.681  22.480  0.00  0.00     0.262 C 
HETATM   22  C   UNL     1       4.076  10.163  23.847  0.00  0.00     0.263 C 
HETATM   23  N   UNL     1       3.175   9.106  24.496  0.00  0.00    -0.057 N 
HETATM   24  C   UNL     1       3.696   7.664  24.479  0.00  0.00     0.263 C 
HETATM   25  H   UNL     1       3.176   9.389  25.490  0.00  0.00     0.281 HD
HETATM   26  C   UNL     1       4.257   7.289  23.094  0.00  0.00     0.262 C 
BRANCH  23  27
HETATM   27  C   UNL     1       1.709   9.141  24.130  0.00  0.00     0.233 C 
HETATM   28  C   UNL     1       1.121  10.527  24.237  0.00  0.00     0.007 C 
HETATM   29  C   UNL     1       0.112  10.832  25.058  0.00  0.00    -0.007 C 
HETATM   30  C   UNL     1      -0.627   9.758  25.776  0.00  0.00     0.123 C 
HETATM   31  C   UNL     1      -1.219  10.206  27.102  0.00  0.00    -0.008 C 
HETATM   32  C   UNL     1       0.017   8.410  25.823  0.00  0.00    -0.007 C 
HETATM   33  N   UNL     1      -1.710  10.578  28.202  0.00  0.00    -0.101 N 
HETATM   34  C   UNL     1       1.031   8.115  25.012  0.00  0.00     0.007 C 
ENDBRANCH  23  27
ENDBRANCH  18  19
ENDBRANCH  17  18
ENDBRANCH  16  17
ENDBRANCH  15  16
ENDBRANCH  12  15
TORSDOF 7
ENDMDL
MODEL 3
REMARK minimizedAffinity -9.36486816
REMARK minimizedRMSD -1
REMARK  7 active torsions:
REMARK  status: ('A' for Active; 'I' for Inactive)
REMARK    1  A    between atoms: C_5  and  O_6 
REMARK    2  A    between atoms: C_13  and  C_14 
REMARK    3  A    between atoms: C_14  and  C_15 
REMARK    4  A    between atoms: C_15  and  C_16 
REMARK    5  A    between atoms: C_16  and  C_17 
REMARK    6  A    between atoms: C_17  and  N_18 
REMARK    7  A    between atoms: N_22  and  C_26 
ROOT
HETATM    1  N   UNL     1       1.482  14.503  24.324  0.00  0.00    -0.191 NA
HETATM    2  C   UNL     1       2.615  14.527  24.568  0.00  0.00     0.102 C 
HETATM    3  C   UNL     1       4.020  14.532  24.888  0.00  0.00     0.078 A 
HETATM    4  C   UNL     1       4.881  13.647  24.188  0.00  0.00     0.039 A 
HETATM    5  C   UNL     1       4.534  15.363  25.885  0.00  0.00     0.088 A 
HETATM    6  C   UNL     1       5.891  15.313  26.217  0.00  0.00     0.068 A 
HETATM    7  C   UNL     1       6.711  14.417  25.531  0.00  0.00     0.045 A 
HETATM    8  C   UNL     1       6.261  13.573  24.506  0.00  0.00    -0.000 A 
HETATM    9  N   UNL     1       8.049  14.158  25.713  0.00  0.00    -0.365 N 
HETATM   10  H   UNL     1       8.624  14.602  26.423  0.00  0.00     0.165 HD
HETATM   11  C   UNL     1       8.466  13.181  24.849  0.00  0.00     0.096 A 
HETATM   12  C   UNL     1       7.399  12.795  24.059  0.00  0.00    -0.030 A 
ENDROOT
BRANCH   5  13
HETATM   13  O   UNL     1       3.796  16.254  26.610  0.00  0.00    -0.359 OA
HETATM   14  H   UNL     1       2.870  16.305  26.317  0.00  0.00     0.217 HD
ENDBRANCH   5  13
BRANCH  12  15
HETATM   15  C   UNL     1       7.473  11.687  23.045  0.00  0.00     0.041 C 
BRANCH  15  16
HETATM   16  C   UNL     1       8.152  10.381  23.526  0.00  0.00     0.006 C 
BRANCH  16  17
HETATM   17  C   UNL     1       7.937   9.146  22.593  0.00  0.00     0.028 C 
BRANCH  17  18
HETATM   18  C   UNL     1       7.107   8.112  23.323  0.00  0.00     0.235 C 
BRANCH  18  19
HETATM   19  N   UNL     1       5.875   7.547  22.632  0.00  0.00    -0.068 N 
HETATM   20  H   UNL     1       6.169   7.237  21.688  0.00  0.00     0.280 HD
HETATM   21  C   UNL     1       4.861   8.698  22.442  0.00  0.00     0.262 C 
HETATM   22  C   UNL     1       4.335   9.173  23.826  0.00  0.00     0.263 C 
HETATM   23  N   UNL     1       3.799   8.004  24.661  0.00  0.00    -0.057 N 
HETATM   24  C   UNL     1       4.662   6.737  24.693  0.00  0.00     0.263 C 
HETATM   25  H   UNL     1       3.827   8.382  25.622  0.00  0.00     0.281 HD
HETATM   26  C   UNL     1       5.159   6.364  23.282  0.00  0.00     0.262 C 
BRANCH  23  27
HETATM   27  C   UNL     1       2.342   7.645  24.476  0.00  0.00     0.233 C 
HETATM   28  C   UNL     1       1.462   8.863  24.333  0.00  0.00     0.007 C 
HETATM   29  C   UNL     1       0.467   9.149  25.177  0.00  0.00    -0.007 C 
HETATM   30  C   UNL     1       0.043   8.161  26.206  0.00  0.00     0.123 C 
HETATM   31  C   UNL     1      -0.546   8.795  27.456  0.00  0.00    -0.008 C 
HETATM   32  C   UNL     1       0.979   7.029  26.482  0.00  0.00    -0.007 C 
HETATM   33  N   UNL     1      -1.033   9.321  28.493  0.00  0.00    -0.101 N 
HETATM   34  C   UNL     1       1.977   6.755  25.644  0.00  0.00     0.007 C 
ENDBRANCH  23  27
ENDBRANCH  18  19
ENDBRANCH  17  18
ENDBRANCH  16  17
ENDBRANCH  15  16
ENDBRANCH  12  15
TORSDOF 7
ENDMDL
MODEL 4
REMARK minimizedAffinity -9.27793884
REMARK minimizedRMSD -1
REMARK  7 active torsions:
REMARK  status: ('A' for Active; 'I' for Inactive)
REMARK    1  A    between atoms: C_5  and  O_6 
REMARK    2  A    between atoms: C_13  and  C_14 
REMARK    3  A    between atoms: C_14  and  C_15 
REMARK    4  A    between atoms: C_15  and  C_16 
REMARK    5  A    between atoms: C_16  and  C_17 
REMARK    6  A    between atoms: C_17  and  N_18 
REMARK    7  A    between atoms: N_22  and  C_26 
ROOT
HETATM    1  N   UNL     1       1.700  14.523  24.200  0.00  0.00    -0.191 NA
HETATM    2  C   UNL     1       2.827  14.512  24.472  0.00  0.00     0.102 C 
HETATM    3  C   UNL     1       4.223  14.474  24.828  0.00  0.00     0.078 A 
HETATM    4  C   UNL     1       5.061  13.519  24.194  0.00  0.00     0.039 A 
HETATM    5  C   UNL     1       4.749  15.331  25.796  0.00  0.00     0.088 A 
HETATM    6  C   UNL     1       6.094  15.241  26.165  0.00  0.00     0.068 A 
HETATM    7  C   UNL     1       6.890  14.278  25.545  0.00  0.00     0.045 A 
HETATM    8  C   UNL     1       6.429  13.404  24.550  0.00  0.00    -0.000 A 
HETATM    9  N   UNL     1       8.211  13.972  25.774  0.00  0.00    -0.365 N 
HETATM   10  H   UNL     1       8.788  14.426  26.476  0.00  0.00     0.165 HD
HETATM   11  C   UNL     1       8.606  12.937  24.970  0.00  0.00     0.096 A 
HETATM   12  C   UNL     1       7.542  12.557  24.171  0.00  0.00    -0.030 A 
ENDROOT
BRANCH   5  13
HETATM   13  O   UNL     1       4.033  16.287  26.457  0.00  0.00    -0.359 OA
HETATM   14  H   UNL     1       3.118  16.363  26.139  0.00  0.00     0.217 HD
ENDBRANCH   5  13
BRANCH  12  15
HETATM   15  C   UNL     1       7.592  11.397  23.215  0.00  0.00     0.041 C 
BRANCH  15  16
HETATM   16  C   UNL     1       6.804  10.137  23.647  0.00  0.00     0.006 C 
BRANCH  16  17
HETATM   17  C   UNL     1       5.597   9.769  22.725  0.00  0.00     0.028 C 
BRANCH  17  18
HETATM   18  C   UNL     1       4.305  10.090  23.447  0.00  0.00     0.235 C 
BRANCH  18  19
HETATM   19  N   UNL     1       3.151   9.106  23.346  0.00  0.00    -0.068 N 
HETATM   20  H   UNL     1       2.878   9.054  22.348  0.00  0.00     0.280 HD
HETATM   21  C   UNL     1       1.949   9.696  24.119  0.00  0.00     0.262 C 
HETATM   22  C   UNL     1       2.272   9.747  25.639  0.00  0.00     0.263 C 
HETATM   23  N   UNL     1       2.741   8.386  26.166  0.00  0.00    -0.057 N 
HETATM   24  C   UNL     1       3.770   7.642  25.307  0.00  0.00     0.263 C 
HETATM   25  H   UNL     1       3.239   8.641  27.035  0.00  0.00     0.281 HD
HETATM   26  C   UNL     1       3.379   7.670  23.817  0.00  0.00     0.262 C 
BRANCH  23  27
HETATM   27  C   UNL     1       1.671   7.435  26.649  0.00  0.00     0.233 C 
HETATM   28  C   UNL     1       0.503   8.154  27.280  0.00  0.00     0.007 C 
HETATM   29  C   UNL     1       0.130   7.968  28.550  0.00  0.00    -0.007 C 
HETATM   30  C   UNL     1       0.735   6.877  29.362  0.00  0.00     0.123 C 
HETATM   31  C   UNL     1       0.771   7.173  30.853  0.00  0.00    -0.008 C 
HETATM   32  C   UNL     1       1.989   6.258  28.835  0.00  0.00    -0.007 C 
HETATM   33  N   UNL     1       0.803   7.420  32.088  0.00  0.00    -0.101 N 
HETATM   34  C   UNL     1       2.364   6.456  27.573  0.00  0.00     0.007 C 
ENDBRANCH  23  27
ENDBRANCH  18  19
ENDBRANCH  17  18
ENDBRANCH  16  17
ENDBRANCH  15  16
ENDBRANCH  12  15
TORSDOF 7
ENDMDL
MODEL 5
REMARK minimizedAffinity -9.13910198
REMARK minimizedRMSD -1
REMARK  7 active torsions:
REMARK  status: ('A' for Active; 'I' for Inactive)
REMARK    1  A    between atoms: C_5  and  O_6 
REMARK    2  A    between atoms: C_13  and  C_14 
REMARK    3  A    between atoms: C_14  and  C_15 
REMARK    4  A    between atoms: C_15  and  C_16 
REMARK    5  A    between atoms: C_16  and  C_17 
REMARK    6  A    between atoms: C_17  and  N_18 
REMARK    7  A    between atoms: N_22  and  C_26 
ROOT
HETATM    1  N   UNL     1       1.116  11.363  23.302  0.00  0.00    -0.191 NA
HETATM    2  C   UNL     1       2.033  12.037  23.522  0.00  0.00     0.102 C 
HETATM    3  C   UNL     1       3.176  12.863  23.823  0.00  0.00     0.078 A 
HETATM    4  C   UNL     1       4.474  12.303  23.686  0.00  0.00     0.039 A 
HETATM    5  C   UNL     1       3.025  14.176  24.268  0.00  0.00     0.088 A 
HETATM    6  C   UNL     1       4.144  14.941  24.606  0.00  0.00     0.068 A 
HETATM    7  C   UNL     1       5.407  14.360  24.487  0.00  0.00     0.045 A 
HETATM    8  C   UNL     1       5.627  13.055  24.024  0.00  0.00    -0.000 A 
HETATM    9  N   UNL     1       6.635  14.893  24.801  0.00  0.00    -0.365 N 
HETATM   10  H   UNL     1       6.771  15.818  25.198  0.00  0.00     0.165 HD
HETATM   11  C   UNL     1       7.626  13.978  24.562  0.00  0.00     0.096 A 
HETATM   12  C   UNL     1       7.057  12.822  24.057  0.00  0.00    -0.030 A 
ENDROOT
BRANCH   5  13
HETATM   13  O   UNL     1       1.826  14.810  24.426  0.00  0.00    -0.359 OA
HETATM   14  H   UNL     1       1.072  14.272  24.130  0.00  0.00     0.217 HD
ENDBRANCH   5  13
BRANCH  12  15
HETATM   15  C   UNL     1       7.840  11.576  23.749  0.00  0.00     0.041 C 
BRANCH  15  16
HETATM   16  C   UNL     1       7.534  10.911  22.385  0.00  0.00     0.006 C 
BRANCH  16  17
HETATM   17  C   UNL     1       8.011   9.429  22.254  0.00  0.00     0.028 C 
BRANCH  17  18
HETATM   18  C   UNL     1       7.209   8.565  23.205  0.00  0.00     0.235 C 
BRANCH  18  19
HETATM   19  N   UNL     1       6.092   7.703  22.640  0.00  0.00    -0.068 N 
HETATM   20  H   UNL     1       6.362   7.447  21.673  0.00  0.00     0.280 HD
HETATM   21  C   UNL     1       4.816   8.571  22.546  0.00  0.00     0.262 C 
HETATM   22  C   UNL     1       4.323   8.942  23.973  0.00  0.00     0.263 C 
HETATM   23  N   UNL     1       4.166   7.702  24.860  0.00  0.00    -0.057 N 
HETATM   24  C   UNL     1       5.309   6.681  24.812  0.00  0.00     0.263 C 
HETATM   25  H   UNL     1       4.192   8.102  25.812  0.00  0.00     0.281 HD
HETATM   26  C   UNL     1       5.746   6.400  23.361  0.00  0.00     0.262 C 
BRANCH  23  27
HETATM   27  C   UNL     1       2.828   6.999  24.819  0.00  0.00     0.233 C 
HETATM   28  C   UNL     1       1.713   7.909  24.365  0.00  0.00     0.007 C 
HETATM   29  C   UNL     1       0.649   8.195  25.122  0.00  0.00    -0.007 C 
HETATM   30  C   UNL     1       0.410   7.462  26.395  0.00  0.00     0.123 C 
HETATM   31  C   UNL     1      -0.346   8.273  27.434  0.00  0.00    -0.008 C 
HETATM   32  C   UNL     1       1.558   6.681  26.951  0.00  0.00    -0.007 C 
HETATM   33  N   UNL     1      -0.973   8.947  28.296  0.00  0.00    -0.101 N 
HETATM   34  C   UNL     1       2.621   6.410  26.197  0.00  0.00     0.007 C 
ENDBRANCH  23  27
ENDBRANCH  18  19
ENDBRANCH  17  18
ENDBRANCH  16  17
ENDBRANCH  15  16
ENDBRANCH  12  15
TORSDOF 7
ENDMDL
MODEL 6
REMARK minimizedAffinity -8.97452545
REMARK minimizedRMSD -1
REMARK  7 active torsions:
REMARK  status: ('A' for Active; 'I' for Inactive)
REMARK    1  A    between atoms: C_5  and  O_6 
REMARK    2  A    between atoms: C_13  and  C_14 
REMARK    3  A    between atoms: C_14  and  C_15 
REMARK    4  A    between atoms: C_15  and  C_16 
REMARK    5  A    between atoms: C_16  and  C_17 
REMARK    6  A    between atoms: C_17  and  N_18 
REMARK    7  A    between atoms: N_22  and  C_26 
ROOT
HETATM    1  N   UNL     1       1.330   9.953  24.155  0.00  0.00    -0.191 NA
HETATM    2  C   UNL     1       1.815  11.006  24.180  0.00  0.00     0.102 C 
HETATM    3  C   UNL     1       2.416  12.314  24.242  0.00  0.00     0.078 A 
HETATM    4  C   UNL     1       3.801  12.412  24.538  0.00  0.00     0.039 A 
HETATM    5  C   UNL     1       1.660  13.470  24.048  0.00  0.00     0.088 A 
HETATM    6  C   UNL     1       2.252  14.730  24.166  0.00  0.00     0.068 A 
HETATM    7  C   UNL     1       3.609  14.800  24.482  0.00  0.00     0.045 A 
HETATM    8  C   UNL     1       4.428  13.678  24.666  0.00  0.00    -0.000 A 
HETATM    9  N   UNL     1       4.389  15.912  24.695  0.00  0.00    -0.365 N 
HETATM   10  H   UNL     1       4.043  16.867  24.664  0.00  0.00     0.165 HD
HETATM   11  C   UNL     1       5.669  15.542  25.012  0.00  0.00     0.096 A 
HETATM   12  C   UNL     1       5.755  14.161  24.989  0.00  0.00    -0.030 A 
ENDROOT
BRANCH   5  13
HETATM   13  O   UNL     1       0.327  13.486  23.751  0.00  0.00    -0.359 OA
HETATM   14  H   UNL     1      -0.042  12.596  23.621  0.00  0.00     0.217 HD
ENDBRANCH   5  13
BRANCH  12  15
HETATM   15  C   UNL     1       6.997  13.400  25.362  0.00  0.00     0.041 C 
BRANCH  15  16
HETATM   16  C   UNL     1       7.959  13.073  24.195  0.00  0.00     0.006 C 
BRANCH  16  17
HETATM   17  C   UNL     1       7.438  11.989  23.196  0.00  0.00     0.028 C 
BRANCH  17  18
HETATM   18  C   UNL     1       7.980  10.636  23.607  0.00  0.00     0.235 C 
BRANCH  18  19
HETATM   19  N   UNL     1       7.635   9.424  22.755  0.00  0.00    -0.068 N 
HETATM   20  H   UNL     1       8.182   9.500  21.878  0.00  0.00     0.280 HD
HETATM   21  C   UNL     1       6.140   9.517  22.373  0.00  0.00     0.262 C 
HETATM   22  C   UNL     1       5.258   9.351  23.643  0.00  0.00     0.263 C 
HETATM   23  N   UNL     1       5.622   8.084  24.424  0.00  0.00    -0.057 N 
HETATM   24  C   UNL     1       7.117   7.817  24.631  0.00  0.00     0.263 C 
HETATM   25  H   UNL     1       5.244   8.283  25.365  0.00  0.00     0.281 HD
HETATM   26  C   UNL     1       7.910   8.034  23.327  0.00  0.00     0.262 C 
BRANCH  23  27
HETATM   27  C   UNL     1       4.909   6.810  24.031  0.00  0.00     0.233 C 
HETATM   28  C   UNL     1       3.857   7.042  22.974  0.00  0.00     0.007 C 
HETATM   29  C   UNL     1       2.561   6.775  23.162  0.00  0.00    -0.007 C 
HETATM   30  C   UNL     1       2.110   6.038  24.374  0.00  0.00     0.123 C 
HETATM   31  C   UNL     1       0.695   6.383  24.807  0.00  0.00    -0.008 C 
HETATM   32  C   UNL     1       3.084   5.935  25.503  0.00  0.00    -0.007 C 
HETATM   33  N   UNL     1      -0.479   6.670  25.168  0.00  0.00    -0.101 N 
HETATM   34  C   UNL     1       4.372   6.215  25.314  0.00  0.00     0.007 C 
ENDBRANCH  23  27
ENDBRANCH  18  19
ENDBRANCH  17  18
ENDBRANCH  16  17
ENDBRANCH  15  16
ENDBRANCH  12  15
TORSDOF 7
ENDMDL
MODEL 7
REMARK minimizedAffinity -8.92152786
REMARK minimizedRMSD -1
REMARK  7 active torsions:
REMARK  status: ('A' for Active; 'I' for Inactive)
REMARK    1  A    between atoms: C_5  and  O_6 
REMARK    2  A    between atoms: C_13  and  C_14 
REMARK    3  A    between atoms: C_14  and  C_15 
REMARK    4  A    between atoms: C_15  and  C_16 
REMARK    5  A    between atoms: C_16  and  C_17 
REMARK    6  A    between atoms: C_17  and  N_18 
REMARK    7  A    between atoms: N_22  and  C_26 
ROOT
HETATM    1  N   UNL     1       1.791  14.234  24.382  0.00  0.00    -0.191 NA
HETATM    2  C   UNL     1       2.946  14.135  24.365  0.00  0.00     0.102 C 
HETATM    3  C   UNL     1       4.381  13.998  24.370  0.00  0.00     0.078 A 
HETATM    4  C   UNL     1       4.946  12.748  24.007  0.00  0.00     0.039 A 
HETATM    5  C   UNL     1       5.209  15.054  24.751  0.00  0.00     0.088 A 
HETATM    6  C   UNL     1       6.595  14.884  24.801  0.00  0.00     0.068 A 
HETATM    7  C   UNL     1       7.124  13.638  24.463  0.00  0.00     0.045 A 
HETATM    8  C   UNL     1       6.349  12.545  24.051  0.00  0.00    -0.000 A 
HETATM    9  N   UNL     1       8.435  13.223  24.483  0.00  0.00    -0.365 N 
HETATM   10  H   UNL     1       9.212  13.803  24.783  0.00  0.00     0.165 HD
HETATM   11  C   UNL     1       8.523  11.910  24.106  0.00  0.00     0.096 A 
HETATM   12  C   UNL     1       7.256  11.443  23.804  0.00  0.00    -0.030 A 
ENDROOT
BRANCH   5  13
HETATM   13  O   UNL     1       4.768  16.296  25.110  0.00  0.00    -0.359 OA
HETATM   14  H   UNL     1       3.807  16.400  25.011  0.00  0.00     0.217 HD
ENDBRANCH   5  13
BRANCH  12  15
HETATM   15  C   UNL     1       6.964  10.018  23.423  0.00  0.00     0.041 C 
BRANCH  15  16
HETATM   16  C   UNL     1       6.755   9.756  21.912  0.00  0.00     0.006 C 
BRANCH  16  17
HETATM   17  C   UNL     1       5.377   9.118  21.540  0.00  0.00     0.028 C 
BRANCH  17  18
HETATM   18  C   UNL     1       4.951   8.178  22.649  0.00  0.00     0.235 C 
BRANCH  18  19
HETATM   19  N   UNL     1       3.494   7.751  22.720  0.00  0.00    -0.068 N 
HETATM   20  H   UNL     1       3.052   8.014  21.820  0.00  0.00     0.280 HD
HETATM   21  C   UNL     1       2.804   8.579  23.829  0.00  0.00     0.262 C 
HETATM   22  C   UNL     1       3.382   8.187  25.218  0.00  0.00     0.263 C 
HETATM   23  N   UNL     1       3.327   6.673  25.449  0.00  0.00    -0.057 N 
HETATM   24  C   UNL     1       3.783   5.789  24.282  0.00  0.00     0.263 C 
HETATM   25  H   UNL     1       4.031   6.533  26.193  0.00  0.00     0.281 HD
HETATM   26  C   UNL     1       3.182   6.272  22.947  0.00  0.00     0.262 C 
BRANCH  23  27
HETATM   27  C   UNL     1       2.062   6.122  26.065  0.00  0.00     0.233 C 
HETATM   28  C   UNL     1       0.821   6.584  25.342  0.00  0.00     0.007 C 
HETATM   29  C   UNL     1      -0.145   7.298  25.930  0.00  0.00    -0.007 C 
HETATM   30  C   UNL     1      -0.137   7.506  27.404  0.00  0.00     0.123 C 
HETATM   31  C   UNL     1      -0.804   8.801  27.841  0.00  0.00    -0.008 C 
HETATM   32  C   UNL     1       1.140   7.208  28.122  0.00  0.00    -0.007 C 
HETATM   33  N   UNL     1      -1.356   9.875  28.203  0.00  0.00    -0.101 N 
HETATM   34  C   UNL     1       2.104   6.508  27.528  0.00  0.00     0.007 C 
ENDBRANCH  23  27
ENDBRANCH  18  19
ENDBRANCH  17  18
ENDBRANCH  16  17
ENDBRANCH  15  16
ENDBRANCH  12  15
TORSDOF 7
ENDMDL
MODEL 8
REMARK minimizedAffinity -8.80327988
REMARK minimizedRMSD -1
REMARK  7 active torsions:
REMARK  status: ('A' for Active; 'I' for Inactive)
REMARK    1  A    between atoms: C_5  and  O_6 
REMARK    2  A    between atoms: C_13  and  C_14 
REMARK    3  A    between atoms: C_14  and  C_15 
REMARK    4  A    between atoms: C_15  and  C_16 
REMARK    5  A    between atoms: C_16  and  C_17 
REMARK    6  A    between atoms: C_17  and  N_18 
REMARK    7  A    between atoms: N_22  and  C_26 
ROOT
HETATM    1  N   UNL     1       2.026   9.818  23.647  0.00  0.00    -0.191 NA
HETATM    2  C   UNL     1       2.396  10.902  23.826  0.00  0.00     0.102 C 
HETATM    3  C   UNL     1       2.863  12.242  24.077  0.00  0.00     0.078 A 
HETATM    4  C   UNL     1       4.259  12.496  24.029  0.00  0.00     0.039 A 
HETATM    5  C   UNL     1       1.977  13.272  24.393  0.00  0.00     0.088 A 
HETATM    6  C   UNL     1       2.455  14.552  24.686  0.00  0.00     0.068 A 
HETATM    7  C   UNL     1       3.833  14.769  24.656  0.00  0.00     0.045 A 
HETATM    8  C   UNL     1       4.773  13.784  24.324  0.00  0.00    -0.000 A 
HETATM    9  N   UNL     1       4.532  15.916  24.951  0.00  0.00    -0.365 N 
HETATM   10  H   UNL     1       4.102  16.782  25.262  0.00  0.00     0.165 HD
HETATM   11  C   UNL     1       5.878  15.698  24.826  0.00  0.00     0.096 A 
HETATM   12  C   UNL     1       6.085  14.392  24.417  0.00  0.00    -0.030 A 
ENDROOT
BRANCH   5  13
HETATM   13  O   UNL     1       0.620  13.137  24.457  0.00  0.00    -0.359 OA
HETATM   14  H   UNL     1       0.315  12.252  24.194  0.00  0.00     0.217 HD
ENDBRANCH   5  13
BRANCH  12  15
HETATM   15  C   UNL     1       7.448  13.779  24.249  0.00  0.00     0.041 C 
BRANCH  15  16
HETATM   16  C   UNL     1       7.508  12.236  24.360  0.00  0.00     0.006 C 
BRANCH  16  17
HETATM   17  C   UNL     1       7.531  11.480  22.992  0.00  0.00     0.028 C 
BRANCH  17  18
HETATM   18  C   UNL     1       8.232  10.150  23.172  0.00  0.00     0.235 C 
BRANCH  18  19
HETATM   19  N   UNL     1       7.633   8.916  22.517  0.00  0.00    -0.068 N 
HETATM   20  H   UNL     1       7.903   8.939  21.516  0.00  0.00     0.280 HD
HETATM   21  C   UNL     1       6.093   9.038  22.579  0.00  0.00     0.262 C 
HETATM   22  C   UNL     1       5.616   8.952  24.056  0.00  0.00     0.263 C 
HETATM   23  N   UNL     1       6.169   7.707  24.759  0.00  0.00    -0.057 N 
HETATM   24  C   UNL     1       7.655   7.403  24.537  0.00  0.00     0.263 C 
HETATM   25  H   UNL     1       6.085   7.956  25.759  0.00  0.00     0.281 HD
HETATM   26  C   UNL     1       8.038   7.543  23.050  0.00  0.00     0.262 C 
BRANCH  23  27
HETATM   27  C   UNL     1       5.350   6.441  24.650  0.00  0.00     0.233 C 
HETATM   28  C   UNL     1       3.882   6.681  24.907  0.00  0.00     0.007 C 
HETATM   29  C   UNL     1       3.208   6.092  25.899  0.00  0.00    -0.007 C 
HETATM   30  C   UNL     1       3.834   4.999  26.692  0.00  0.00     0.123 C 
HETATM   31  C   UNL     1       3.310   4.901  28.116  0.00  0.00    -0.008 C 
HETATM   32  C   UNL     1       5.317   4.847  26.579  0.00  0.00    -0.007 C 
HETATM   33  N   UNL     1       2.876   4.820  29.297  0.00  0.00    -0.101 N 
HETATM   34  C   UNL     1       5.986   5.446  25.597  0.00  0.00     0.007 C 
ENDBRANCH  23  27
ENDBRANCH  18  19
ENDBRANCH  17  18
ENDBRANCH  16  17
ENDBRANCH  15  16
ENDBRANCH  12  15
TORSDOF 7
ENDMDL
MODEL 9
REMARK minimizedAffinity -8.73364162
REMARK minimizedRMSD -1
REMARK  7 active torsions:
REMARK  status: ('A' for Active; 'I' for Inactive)
REMARK    1  A    between atoms: C_5  and  O_6 
REMARK    2  A    between atoms: C_13  and  C_14 
REMARK    3  A    between atoms: C_14  and  C_15 
REMARK    4  A    between atoms: C_15  and  C_16 
REMARK    5  A    between atoms: C_16  and  C_17 
REMARK    6  A    between atoms: C_17  and  N_18 
REMARK    7  A    between atoms: N_22  and  C_26 
ROOT
HETATM    1  N   UNL     1       1.673  14.485  24.234  0.00  0.00    -0.191 NA
HETATM    2  C   UNL     1       2.795  14.497  24.526  0.00  0.00     0.102 C 
HETATM    3  C   UNL     1       4.185  14.487  24.906  0.00  0.00     0.078 A 
HETATM    4  C   UNL     1       5.053  13.549  24.287  0.00  0.00     0.039 A 
HETATM    5  C   UNL     1       4.676  15.354  25.882  0.00  0.00     0.088 A 
HETATM    6  C   UNL     1       6.016  15.291  26.275  0.00  0.00     0.068 A 
HETATM    7  C   UNL     1       6.842  14.344  25.669  0.00  0.00     0.045 A 
HETATM    8  C   UNL     1       6.416  13.461  24.667  0.00  0.00    -0.000 A 
HETATM    9  N   UNL     1       8.165  14.065  25.921  0.00  0.00    -0.365 N 
HETATM   10  H   UNL     1       8.720  14.531  26.633  0.00  0.00     0.165 HD
HETATM   11  C   UNL     1       8.595  13.038  25.125  0.00  0.00     0.096 A 
HETATM   12  C   UNL     1       7.552  12.637  24.308  0.00  0.00    -0.030 A 
ENDROOT
BRANCH   5  13
HETATM   13  O   UNL     1       3.930  16.295  26.531  0.00  0.00    -0.359 OA
HETATM   14  H   UNL     1       3.019  16.352  26.197  0.00  0.00     0.217 HD
ENDBRANCH   5  13
BRANCH  12  15
HETATM   15  C   UNL     1       7.643  11.479  23.353  0.00  0.00     0.041 C 
BRANCH  15  16
HETATM   16  C   UNL     1       6.796  10.237  23.723  0.00  0.00     0.006 C 
BRANCH  16  17
HETATM   17  C   UNL     1       5.319  10.273  23.215  0.00  0.00     0.028 C 
BRANCH  17  18
HETATM   18  C   UNL     1       4.612   9.007  23.652  0.00  0.00     0.235 C 
BRANCH  18  19
HETATM   19  N   UNL     1       3.841   9.019  24.963  0.00  0.00    -0.068 N 
HETATM   20  H   UNL     1       4.530   9.170  25.722  0.00  0.00     0.280 HD
HETATM   21  C   UNL     1       3.229   7.615  25.172  0.00  0.00     0.262 C 
HETATM   22  C   UNL     1       2.140   7.347  24.095  0.00  0.00     0.263 C 
HETATM   23  N   UNL     1       1.104   8.475  24.042  0.00  0.00    -0.057 N 
HETATM   24  C   UNL     1       1.653   9.907  24.071  0.00  0.00     0.263 C 
HETATM   25  H   UNL     1       0.689   8.357  23.103  0.00  0.00     0.281 HD
HETATM   26  C   UNL     1       2.743  10.066  25.148  0.00  0.00     0.262 C 
BRANCH  23  27
HETATM   27  C   UNL     1      -0.089   8.350  24.963  0.00  0.00     0.233 C 
HETATM   28  C   UNL     1      -0.181   9.493  25.945  0.00  0.00     0.007 C 
HETATM   29  C   UNL     1      -0.139   9.323  27.270  0.00  0.00    -0.007 C 
HETATM   30  C   UNL     1      -0.199   7.957  27.857  0.00  0.00     0.123 C 
HETATM   31  C   UNL     1       0.512   7.836  29.196  0.00  0.00    -0.008 C 
HETATM   32  C   UNL     1       0.052   6.811  26.930  0.00  0.00    -0.007 C 
HETATM   33  N   UNL     1       1.102   7.736  30.305  0.00  0.00    -0.101 N 
HETATM   34  C   UNL     1       0.022   6.988  25.612  0.00  0.00     0.007 C 
ENDBRANCH  23  27
ENDBRANCH  18  19
ENDBRANCH  17  18
ENDBRANCH  16  17
ENDBRANCH  15  16
ENDBRANCH  12  15
TORSDOF 7
ENDMDL
