MODEL 1
REMARK VINA RESULT:    -8.600      0.000      0.000
REMARK INTER + INTRA:         -12.304
REMARK INTER:                 -10.900
REMARK INTRA:                  -1.404
REMARK UNBOUND:                -0.939
REMARK  6 active torsions:
REMARK  status: ('A' for Active; 'I' for Inactive)
REMARK    1  A    between atoms: O_2  and  C_3 
REMARK       I    between atoms: N_6  and  C_7 
REMARK    2  A    between atoms: C_7  and  C_9 
REMARK    3  A    between atoms: C_15  and  O_16 
REMARK    4  A    between atoms: C_17  and  C_18 
REMARK       I    between atoms: C_18  and  N_20 
REMARK    5  A    between atoms: N_20  and  C_22 
REMARK    6  A    between atoms: C_25  and  N_26 
ROOT
HETATM    1  C   UNL     1      12.560  12.508  22.270  0.00  0.00     0.157 A 
HETATM    2  N   UNL     1      13.511  13.112  21.524  0.00  0.00    -0.168 NA
HETATM    3  N   UNL     1      12.838  13.920  20.699  0.00  0.00    -0.277 N 
HETATM    4  H   UNL     1      13.368  14.479  20.042  0.00  0.00     0.189 HD
HETATM    5  C   UNL     1      11.486  13.901  20.874  0.00  0.00     0.065 A 
HETATM    6  C   UNL     1      10.465  14.610  20.244  0.00  0.00     0.069 C 
HETATM    7  C   UNL     1       9.163  14.402  20.724  0.00  0.00     0.083 C 
HETATM    8  C   UNL     1       8.877  13.478  21.751  0.00  0.00     0.066 C 
HETATM    9  C   UNL     1       9.928  12.695  22.256  0.00  0.00     0.036 C 
HETATM   10  C   UNL     1      11.259  12.965  21.874  0.00  0.00     0.029 A 
ENDROOT
BRANCH   8  11
HETATM   11  C   UNL     1       7.467  13.228  22.197  0.00  0.00     0.260 C 
HETATM   12  O   UNL     1       6.810  12.513  21.436  0.00  0.00    -0.267 OA
HETATM   13  N   UNL     1       6.943  13.782  23.403  0.00  0.00    -0.318 N 
HETATM   14  C   UNL     1       7.619  14.809  24.212  0.00  0.00     0.159 C 
BRANCH  13  15
HETATM   15  C   UNL     1       5.569  13.503  23.792  0.00  0.00     0.037 A 
HETATM   16  C   UNL     1       5.224  12.401  24.577  0.00  0.00     0.032 A 
HETATM   17  C   UNL     1       3.886  12.116  24.906  0.00  0.00     0.031 A 
HETATM   18  C   UNL     1       2.820  12.922  24.494  0.00  0.00     0.030 A 
HETATM   19  C   UNL     1       3.177  14.050  23.749  0.00  0.00     0.031 A 
HETATM   20  C   UNL     1       4.512  14.339  23.408  0.00  0.00     0.032 A 
BRANCH  18  21
HETATM   21  N   UNL     1       1.513  12.634  24.813  0.00  0.00    -0.377 N 
HETATM   22  C   UNL     1       0.591  13.621  25.397  0.00  0.00     0.149 C 
HETATM   23  C   UNL     1      -0.690  13.669  24.546  0.00  0.00     0.187 C 
HETATM   24  O   UNL     1      -1.307  12.374  24.437  0.00  0.00    -0.388 OA
HETATM   25  C   UNL     1      -0.397  11.437  23.834  0.00  0.00     0.187 C 
HETATM   26  C   UNL     1       0.900  11.305  24.648  0.00  0.00     0.149 C 
ENDBRANCH  18  21
ENDBRANCH  13  15
ENDBRANCH   8  11
BRANCH   7  27
HETATM   27  O   UNL     1       8.167  15.155  20.157  0.00  0.00    -0.360 OA
HETATM   28  H   UNL     1       8.340  15.291  19.211  0.00  0.00     0.217 HD
ENDBRANCH   7  27
BRANCH   1  29
HETATM   29  C   UNL     1      12.831  11.545  23.371  0.00  0.00     0.275 C 
HETATM   30  N   UNL     1      13.146  12.029  24.637  0.00  0.00    -0.344 N 
HETATM   31  C   UNL     1      13.376  11.138  25.757  0.00  0.00     0.129 C 
HETATM   32  C   UNL     1      13.294  13.418  25.047  0.00  0.00     0.158 C 
HETATM   33  C   UNL     1      13.216  12.022  26.979  0.00  0.00     0.053 C 
HETATM   34  C   UNL     1      13.752  13.373  26.507  0.00  0.00     0.140 C 
HETATM   35  O   UNL     1      12.755  10.330  23.171  0.00  0.00    -0.266 OA
BRANCH  34  36
HETATM   36  O   UNL     1      13.217  14.412  27.322  0.00  0.00    -0.389 OA
HETATM   37  C   UNL     1      11.985  14.053  27.935  0.00  0.00     0.202 C 
ENDBRANCH  34  36
ENDBRANCH   1  29
TORSDOF 6
ENDMDL
MODEL 2
REMARK VINA RESULT:    -8.555      3.264     11.002
REMARK INTER + INTRA:         -12.244
REMARK INTER:                 -10.919
REMARK INTRA:                  -1.325
REMARK UNBOUND:                -0.939
REMARK  6 active torsions:
REMARK  status: ('A' for Active; 'I' for Inactive)
REMARK    1  A    between atoms: O_2  and  C_3 
REMARK       I    between atoms: N_6  and  C_7 
REMARK    2  A    between atoms: C_7  and  C_9 
REMARK    3  A    between atoms: C_15  and  O_16 
REMARK    4  A    between atoms: C_17  and  C_18 
REMARK       I    between atoms: C_18  and  N_20 
REMARK    5  A    between atoms: N_20  and  C_22 
REMARK    6  A    between atoms: C_25  and  N_26 
ROOT
HETATM    1  C   UNL     1      -0.492  10.506  24.421  0.00  0.00     0.157 A 
HETATM    2  N   UNL     1      -1.660  10.968  23.922  0.00  0.00    -0.168 NA
HETATM    3  N   UNL     1      -1.426  12.253  23.635  0.00  0.00    -0.277 N 
HETATM    4  H   UNL     1      -2.183  12.798  23.242  0.00  0.00     0.189 HD
HETATM    5  C   UNL     1      -0.152  12.664  23.898  0.00  0.00     0.065 A 
HETATM    6  C   UNL     1       0.476  13.894  23.712  0.00  0.00     0.069 C 
HETATM    7  C   UNL     1       1.842  13.957  24.026  0.00  0.00     0.083 C 
HETATM    8  C   UNL     1       2.544  12.858  24.563  0.00  0.00     0.066 C 
HETATM    9  C   UNL     1       1.827  11.686  24.855  0.00  0.00     0.036 C 
HETATM   10  C   UNL     1       0.484  11.557  24.443  0.00  0.00     0.029 A 
ENDROOT
BRANCH   8  11
HETATM   11  C   UNL     1       3.988  12.977  24.953  0.00  0.00     0.260 C 
HETATM   12  O   UNL     1       4.178  13.501  26.054  0.00  0.00    -0.267 OA
HETATM   13  N   UNL     1       5.042  12.522  24.106  0.00  0.00    -0.318 N 
HETATM   14  C   UNL     1       4.865  12.104  22.706  0.00  0.00     0.159 C 
BRANCH  13  15
HETATM   15  C   UNL     1       6.427  12.657  24.535  0.00  0.00     0.037 A 
HETATM   16  C   UNL     1       7.069  11.682  25.301  0.00  0.00     0.032 A 
HETATM   17  C   UNL     1       8.392  11.846  25.749  0.00  0.00     0.031 A 
HETATM   18  C   UNL     1       9.157  12.976  25.442  0.00  0.00     0.030 A 
HETATM   19  C   UNL     1       8.524  13.926  24.635  0.00  0.00     0.031 A 
HETATM   20  C   UNL     1       7.198  13.774  24.189  0.00  0.00     0.032 A 
BRANCH  18  21
HETATM   21  N   UNL     1      10.450  13.134  25.890  0.00  0.00    -0.377 N 
HETATM   22  C   UNL     1      10.992  14.424  26.344  0.00  0.00     0.149 C 
HETATM   23  C   UNL     1      11.605  14.240  27.743  0.00  0.00     0.187 C 
HETATM   24  O   UNL     1      12.612  13.214  27.754  0.00  0.00    -0.388 OA
HETATM   25  C   UNL     1      12.049  11.956  27.337  0.00  0.00     0.187 C 
HETATM   26  C   UNL     1      11.444  12.048  25.927  0.00  0.00     0.149 C 
ENDBRANCH  18  21
ENDBRANCH  13  15
ENDBRANCH   8  11
BRANCH   7  27
HETATM   27  O   UNL     1       2.480  15.144  23.771  0.00  0.00    -0.360 OA
HETATM   28  H   UNL     1       1.858  15.793  23.403  0.00  0.00     0.217 HD
ENDBRANCH   7  27
BRANCH   1  29
HETATM   29  C   UNL     1      -0.247   9.101  24.840  0.00  0.00     0.275 C 
HETATM   30  N   UNL     1      -0.507   8.726  26.155  0.00  0.00    -0.344 N 
HETATM   31  C   UNL     1      -0.329   7.361  26.607  0.00  0.00     0.129 C 
HETATM   32  C   UNL     1      -0.973   9.571  27.245  0.00  0.00     0.158 C 
HETATM   33  C   UNL     1      -1.136   7.281  27.888  0.00  0.00     0.053 C 
HETATM   34  C   UNL     1      -0.981   8.677  28.488  0.00  0.00     0.140 C 
HETATM   35  O   UNL     1       0.160   8.268  24.026  0.00  0.00    -0.266 OA
BRANCH  34  36
HETATM   36  O   UNL     1      -2.055   8.935  29.388  0.00  0.00    -0.389 OA
HETATM   37  C   UNL     1      -3.328   8.891  28.755  0.00  0.00     0.202 C 
ENDBRANCH  34  36
ENDBRANCH   1  29
TORSDOF 6
ENDMDL
MODEL 3
REMARK VINA RESULT:    -8.527      2.918      4.868
REMARK INTER + INTRA:         -12.207
REMARK INTER:                 -11.537
REMARK INTRA:                  -0.670
REMARK UNBOUND:                -0.939
REMARK  6 active torsions:
REMARK  status: ('A' for Active; 'I' for Inactive)
REMARK    1  A    between atoms: O_2  and  C_3 
REMARK       I    between atoms: N_6  and  C_7 
REMARK    2  A    between atoms: C_7  and  C_9 
REMARK    3  A    between atoms: C_15  and  O_16 
REMARK    4  A    between atoms: C_17  and  C_18 
REMARK       I    between atoms: C_18  and  N_20 
REMARK    5  A    between atoms: N_20  and  C_22 
REMARK    6  A    between atoms: C_25  and  N_26 
ROOT
HETATM    1  C   UNL     1      10.235  15.119  22.546  0.00  0.00     0.157 A 
HETATM    2  N   UNL     1      11.431  15.495  23.050  0.00  0.00    -0.168 NA
HETATM    3  N   UNL     1      11.234  15.581  24.370  0.00  0.00    -0.277 N 
HETATM    4  H   UNL     1      12.018  15.853  24.951  0.00  0.00     0.189 HD
HETATM    5  C   UNL     1       9.972  15.259  24.772  0.00  0.00     0.065 A 
HETATM    6  C   UNL     1       9.396  15.199  26.040  0.00  0.00     0.069 C 
HETATM    7  C   UNL     1       8.067  14.752  26.108  0.00  0.00     0.083 C 
HETATM    8  C   UNL     1       7.319  14.435  24.955  0.00  0.00     0.066 C 
HETATM    9  C   UNL     1       7.909  14.643  23.697  0.00  0.00     0.036 C 
HETATM   10  C   UNL     1       9.276  14.979  23.604  0.00  0.00     0.029 A 
ENDROOT
BRANCH   8  11
HETATM   11  C   UNL     1       5.879  14.025  25.055  0.00  0.00     0.260 C 
HETATM   12  O   UNL     1       5.691  12.963  25.655  0.00  0.00    -0.267 OA
HETATM   13  N   UNL     1       4.827  14.806  24.491  0.00  0.00    -0.318 N 
HETATM   14  C   UNL     1       5.030  15.947  23.583  0.00  0.00     0.159 C 
BRANCH  13  15
HETATM   15  C   UNL     1       3.446  14.365  24.621  0.00  0.00     0.037 A 
HETATM   16  C   UNL     1       2.686  14.617  25.765  0.00  0.00     0.032 A 
HETATM   17  C   UNL     1       1.368  14.143  25.897  0.00  0.00     0.031 A 
HETATM   18  C   UNL     1       0.725  13.414  24.892  0.00  0.00     0.030 A 
HETATM   19  C   UNL     1       1.474  13.207  23.730  0.00  0.00     0.031 A 
HETATM   20  C   UNL     1       2.797  13.669  23.592  0.00  0.00     0.032 A 
BRANCH  18  21
HETATM   21  N   UNL     1      -0.563  12.948  25.030  0.00  0.00    -0.377 N 
HETATM   22  C   UNL     1      -1.544  12.958  23.934  0.00  0.00     0.149 C 
HETATM   23  C   UNL     1      -2.127  11.542  23.777  0.00  0.00     0.187 C 
HETATM   24  O   UNL     1      -2.713  11.067  25.002  0.00  0.00    -0.388 OA
HETATM   25  C   UNL     1      -1.725  11.037  26.048  0.00  0.00     0.187 C 
HETATM   26  C   UNL     1      -1.117  12.427  26.292  0.00  0.00     0.149 C 
ENDBRANCH  18  21
ENDBRANCH  13  15
ENDBRANCH   8  11
BRANCH   7  27
HETATM   27  O   UNL     1       7.523  14.619  27.359  0.00  0.00    -0.360 OA
HETATM   28  H   UNL     1       6.809  15.266  27.490  0.00  0.00     0.217 HD
ENDBRANCH   7  27
BRANCH   1  29
HETATM   29  C   UNL     1       9.970  14.845  21.109  0.00  0.00     0.275 C 
HETATM   30  N   UNL     1       9.448  13.610  20.735  0.00  0.00    -0.344 N 
HETATM   31  C   UNL     1       9.129  13.305  19.354  0.00  0.00     0.129 C 
HETATM   32  C   UNL     1       9.145  12.475  21.594  0.00  0.00     0.158 C 
HETATM   33  C   UNL     1       8.189  12.118  19.439  0.00  0.00     0.053 C 
HETATM   34  C   UNL     1       8.704  11.350  20.655  0.00  0.00     0.140 C 
HETATM   35  O   UNL     1      10.189  15.710  20.257  0.00  0.00    -0.266 OA
BRANCH  34  36
HETATM   36  O   UNL     1       7.666  10.525  21.176  0.00  0.00    -0.389 OA
HETATM   37  C   UNL     1       6.965  11.134  22.253  0.00  0.00     0.202 C 
ENDBRANCH  34  36
ENDBRANCH   1  29
TORSDOF 6
ENDMDL
MODEL 4
REMARK VINA RESULT:    -8.510      0.972      1.180
REMARK INTER + INTRA:         -12.185
REMARK INTER:                 -10.990
REMARK INTRA:                  -1.194
REMARK UNBOUND:                -0.939
REMARK  6 active torsions:
REMARK  status: ('A' for Active; 'I' for Inactive)
REMARK    1  A    between atoms: O_2  and  C_3 
REMARK       I    between atoms: N_6  and  C_7 
REMARK    2  A    between atoms: C_7  and  C_9 
REMARK    3  A    between atoms: C_15  and  O_16 
REMARK    4  A    between atoms: C_17  and  C_18 
REMARK       I    between atoms: C_18  and  N_20 
REMARK    5  A    between atoms: N_20  and  C_22 
REMARK    6  A    between atoms: C_25  and  N_26 
ROOT
HETATM    1  C   UNL     1      12.500  12.439  22.654  0.00  0.00     0.157 A 
HETATM    2  N   UNL     1      13.569  12.884  21.958  0.00  0.00    -0.168 NA
HETATM    3  N   UNL     1      13.051  13.634  20.979  0.00  0.00    -0.277 N 
HETATM    4  H   UNL     1      13.690  14.074  20.328  0.00  0.00     0.189 HD
HETATM    5  C   UNL     1      11.691  13.729  21.003  0.00  0.00     0.065 A 
HETATM    6  C   UNL     1      10.802  14.427  20.188  0.00  0.00     0.069 C 
HETATM    7  C   UNL     1       9.444  14.366  20.541  0.00  0.00     0.083 C 
HETATM    8  C   UNL     1       8.981  13.591  21.624  0.00  0.00     0.066 C 
HETATM    9  C   UNL     1       9.907  12.803  22.326  0.00  0.00     0.036 C 
HETATM   10  C   UNL     1      11.288  12.935  22.067  0.00  0.00     0.029 A 
ENDROOT
BRANCH   8  11
HETATM   11  C   UNL     1       7.517  13.492  21.935  0.00  0.00     0.260 C 
HETATM   12  O   UNL     1       6.868  12.820  21.129  0.00  0.00    -0.267 OA
HETATM   13  N   UNL     1       6.937  14.134  23.070  0.00  0.00    -0.318 N 
HETATM   14  C   UNL     1       7.630  15.117  23.917  0.00  0.00     0.159 C 
BRANCH  13  15
HETATM   15  C   UNL     1       5.510  14.001  23.328  0.00  0.00     0.037 A 
HETATM   16  C   UNL     1       4.879  12.759  23.411  0.00  0.00     0.032 A 
HETATM   17  C   UNL     1       3.491  12.645  23.613  0.00  0.00     0.031 A 
HETATM   18  C   UNL     1       2.659  13.758  23.767  0.00  0.00     0.030 A 
HETATM   19  C   UNL     1       3.304  14.998  23.731  0.00  0.00     0.031 A 
HETATM   20  C   UNL     1       4.691  15.121  23.520  0.00  0.00     0.032 A 
BRANCH  18  21
HETATM   21  N   UNL     1       1.300  13.641  23.958  0.00  0.00    -0.377 N 
HETATM   22  C   UNL     1       0.335  13.572  22.850  0.00  0.00     0.149 C 
HETATM   23  C   UNL     1      -0.553  12.331  23.042  0.00  0.00     0.187 C 
HETATM   24  O   UNL     1      -1.218  12.341  24.317  0.00  0.00    -0.388 OA
HETATM   25  C   UNL     1      -0.251  12.376  25.383  0.00  0.00     0.187 C 
HETATM   26  C   UNL     1       0.657  13.612  25.283  0.00  0.00     0.149 C 
ENDBRANCH  18  21
ENDBRANCH  13  15
ENDBRANCH   8  11
BRANCH   7  27
HETATM   27  O   UNL     1       8.576  15.114  19.787  0.00  0.00    -0.360 OA
HETATM   28  H   UNL     1       7.779  15.329  20.299  0.00  0.00     0.217 HD
ENDBRANCH   7  27
BRANCH   1  29
HETATM   29  C   UNL     1      12.577  11.596  23.877  0.00  0.00     0.275 C 
HETATM   30  N   UNL     1      12.424  12.191  25.126  0.00  0.00    -0.344 N 
HETATM   31  C   UNL     1      12.445  11.413  26.348  0.00  0.00     0.129 C 
HETATM   32  C   UNL     1      12.227  13.604  25.420  0.00  0.00     0.158 C 
HETATM   33  C   UNL     1      11.796  12.315  27.380  0.00  0.00     0.053 C 
HETATM   34  C   UNL     1      12.232  13.714  26.947  0.00  0.00     0.140 C 
HETATM   35  O   UNL     1      12.753  10.378  23.787  0.00  0.00    -0.266 OA
BRANCH  34  36
HETATM   36  O   UNL     1      11.327  14.682  27.468  0.00  0.00    -0.389 OA
HETATM   37  C   UNL     1      10.111  14.753  26.731  0.00  0.00     0.202 C 
ENDBRANCH  34  36
ENDBRANCH   1  29
TORSDOF 6
ENDMDL
MODEL 5
REMARK VINA RESULT:    -8.344      3.221     11.077
REMARK INTER + INTRA:         -11.965
REMARK INTER:                 -10.621
REMARK INTRA:                  -1.344
REMARK UNBOUND:                -0.939
REMARK  6 active torsions:
REMARK  status: ('A' for Active; 'I' for Inactive)
REMARK    1  A    between atoms: O_2  and  C_3 
REMARK       I    between atoms: N_6  and  C_7 
REMARK    2  A    between atoms: C_7  and  C_9 
REMARK    3  A    between atoms: C_15  and  O_16 
REMARK    4  A    between atoms: C_17  and  C_18 
REMARK       I    between atoms: C_18  and  N_20 
REMARK    5  A    between atoms: N_20  and  C_22 
REMARK    6  A    between atoms: C_25  and  N_26 
ROOT
HETATM    1  C   UNL     1      -0.495  10.488  24.464  0.00  0.00     0.157 A 
HETATM    2  N   UNL     1      -1.665  10.953  23.973  0.00  0.00    -0.168 NA
HETATM    3  N   UNL     1      -1.430  12.238  23.690  0.00  0.00    -0.277 N 
HETATM    4  H   UNL     1      -2.189  12.787  23.303  0.00  0.00     0.189 HD
HETATM    5  C   UNL     1      -0.155  12.646  23.947  0.00  0.00     0.065 A 
HETATM    6  C   UNL     1       0.474  13.876  23.761  0.00  0.00     0.069 C 
HETATM    7  C   UNL     1       1.843  13.936  24.068  0.00  0.00     0.083 C 
HETATM    8  C   UNL     1       2.546  12.834  24.597  0.00  0.00     0.066 C 
HETATM    9  C   UNL     1       1.829  11.662  24.889  0.00  0.00     0.036 C 
HETATM   10  C   UNL     1       0.483  11.537  24.484  0.00  0.00     0.029 A 
ENDROOT
BRANCH   8  11
HETATM   11  C   UNL     1       3.992  12.949  24.979  0.00  0.00     0.260 C 
HETATM   12  O   UNL     1       4.191  13.498  26.066  0.00  0.00    -0.267 OA
HETATM   13  N   UNL     1       5.039  12.464  24.140  0.00  0.00    -0.318 N 
HETATM   14  C   UNL     1       4.853  12.013  22.752  0.00  0.00     0.159 C 
BRANCH  13  15
HETATM   15  C   UNL     1       6.426  12.597  24.561  0.00  0.00     0.037 A 
HETATM   16  C   UNL     1       7.082  11.605  25.293  0.00  0.00     0.032 A 
HETATM   17  C   UNL     1       8.408  11.766  25.735  0.00  0.00     0.031 A 
HETATM   18  C   UNL     1       9.162  12.910  25.454  0.00  0.00     0.030 A 
HETATM   19  C   UNL     1       8.516  13.878  24.680  0.00  0.00     0.031 A 
HETATM   20  C   UNL     1       7.187  13.729  24.241  0.00  0.00     0.032 A 
BRANCH  18  21
HETATM   21  N   UNL     1      10.457  13.064  25.895  0.00  0.00    -0.377 N 
HETATM   22  C   UNL     1      11.238  11.972  26.497  0.00  0.00     0.149 C 
HETATM   23  C   UNL     1      12.578  11.851  25.752  0.00  0.00     0.187 C 
HETATM   24  O   UNL     1      13.311  13.088  25.765  0.00  0.00    -0.388 OA
HETATM   25  C   UNL     1      12.539  14.131  25.141  0.00  0.00     0.187 C 
HETATM   26  C   UNL     1      11.192  14.340  25.853  0.00  0.00     0.149 C 
ENDBRANCH  18  21
ENDBRANCH  13  15
ENDBRANCH   8  11
BRANCH   7  27
HETATM   27  O   UNL     1       2.481  15.123  23.814  0.00  0.00    -0.360 OA
HETATM   28  H   UNL     1       3.387  15.104  24.164  0.00  0.00     0.217 HD
ENDBRANCH   7  27
BRANCH   1  29
HETATM   29  C   UNL     1      -0.250   9.080  24.877  0.00  0.00     0.275 C 
HETATM   30  N   UNL     1      -0.515   8.698  26.188  0.00  0.00    -0.344 N 
HETATM   31  C   UNL     1      -0.338   7.330  26.633  0.00  0.00     0.129 C 
HETATM   32  C   UNL     1      -0.987   9.536  27.281  0.00  0.00     0.158 C 
HETATM   33  C   UNL     1      -1.150   7.242  27.911  0.00  0.00     0.053 C 
HETATM   34  C   UNL     1      -1.000   8.636  28.519  0.00  0.00     0.140 C 
HETATM   35  O   UNL     1       0.163   8.252  24.060  0.00  0.00    -0.266 OA
BRANCH  34  36
HETATM   36  O   UNL     1      -2.078   8.887  29.415  0.00  0.00    -0.389 OA
HETATM   37  C   UNL     1      -3.328   9.030  28.748  0.00  0.00     0.202 C 
ENDBRANCH  34  36
ENDBRANCH   1  29
TORSDOF 6
ENDMDL
MODEL 6
REMARK VINA RESULT:    -8.310      2.492      4.538
REMARK INTER + INTRA:         -11.921
REMARK INTER:                 -10.712
REMARK INTRA:                  -1.209
REMARK UNBOUND:                -0.939
REMARK  6 active torsions:
REMARK  status: ('A' for Active; 'I' for Inactive)
REMARK    1  A    between atoms: O_2  and  C_3 
REMARK       I    between atoms: N_6  and  C_7 
REMARK    2  A    between atoms: C_7  and  C_9 
REMARK    3  A    between atoms: C_15  and  O_16 
REMARK    4  A    between atoms: C_17  and  C_18 
REMARK       I    between atoms: C_18  and  N_20 
REMARK    5  A    between atoms: N_20  and  C_22 
REMARK    6  A    between atoms: C_25  and  N_26 
ROOT
HETATM    1  C   UNL     1      10.813  12.796  24.899  0.00  0.00     0.157 A 
HETATM    2  N   UNL     1      11.925  12.043  25.043  0.00  0.00    -0.168 NA
HETATM    3  N   UNL     1      11.495  10.780  24.969  0.00  0.00    -0.277 N 
HETATM    4  H   UNL     1      12.180  10.038  25.054  0.00  0.00     0.189 HD
HETATM    5  C   UNL     1      10.153  10.654  24.761  0.00  0.00     0.065 A 
HETATM    6  C   UNL     1       9.347   9.529  24.601  0.00  0.00     0.069 C 
HETATM    7  C   UNL     1       7.990   9.760  24.324  0.00  0.00     0.083 C 
HETATM    8  C   UNL     1       7.443  11.059  24.270  0.00  0.00     0.066 C 
HETATM    9  C   UNL     1       8.276  12.148  24.573  0.00  0.00     0.036 C 
HETATM   10  C   UNL     1       9.664  11.952  24.739  0.00  0.00     0.029 A 
ENDROOT
BRANCH   8  11
HETATM   11  C   UNL     1       5.976  11.271  24.040  0.00  0.00     0.260 C 
HETATM   12  O   UNL     1       5.606  11.070  22.880  0.00  0.00    -0.267 OA
HETATM   13  N   UNL     1       5.095  11.678  25.086  0.00  0.00    -0.318 N 
HETATM   14  C   UNL     1       5.534  12.140  26.413  0.00  0.00     0.159 C 
BRANCH  13  15
HETATM   15  C   UNL     1       3.678  11.866  24.810  0.00  0.00     0.037 A 
HETATM   16  C   UNL     1       2.752  10.827  24.923  0.00  0.00     0.032 A 
HETATM   17  C   UNL     1       1.393  11.009  24.607  0.00  0.00     0.031 A 
HETATM   18  C   UNL     1       0.876  12.238  24.184  0.00  0.00     0.030 A 
HETATM   19  C   UNL     1       1.800  13.286  24.119  0.00  0.00     0.031 A 
HETATM   20  C   UNL     1       3.163  13.111  24.425  0.00  0.00     0.032 A 
BRANCH  18  21
HETATM   21  N   UNL     1      -0.453  12.408  23.870  0.00  0.00    -0.377 N 
HETATM   22  C   UNL     1      -0.910  13.098  22.653  0.00  0.00     0.149 C 
HETATM   23  C   UNL     1      -1.895  12.183  21.905  0.00  0.00     0.187 C 
HETATM   24  O   UNL     1      -3.003  11.796  22.737  0.00  0.00    -0.388 OA
HETATM   25  C   UNL     1      -2.531  11.096  23.902  0.00  0.00     0.187 C 
HETATM   26  C   UNL     1      -1.563  11.960  24.727  0.00  0.00     0.149 C 
ENDBRANCH  18  21
ENDBRANCH  13  15
ENDBRANCH   8  11
BRANCH   7  27
HETATM   27  O   UNL     1       7.211   8.656  24.091  0.00  0.00    -0.360 OA
HETATM   28  H   UNL     1       6.276   8.857  24.264  0.00  0.00     0.217 HD
ENDBRANCH   7  27
BRANCH   1  29
HETATM   29  C   UNL     1      10.795  14.283  24.864  0.00  0.00     0.275 C 
HETATM   30  N   UNL     1      10.702  14.936  23.638  0.00  0.00    -0.344 N 
HETATM   31  C   UNL     1      10.636  16.380  23.548  0.00  0.00     0.129 C 
HETATM   32  C   UNL     1      10.656  14.336  22.313  0.00  0.00     0.158 C 
HETATM   33  C   UNL     1      10.083  16.646  22.161  0.00  0.00     0.053 C 
HETATM   34  C   UNL     1      10.668  15.507  21.327  0.00  0.00     0.140 C 
HETATM   35  O   UNL     1      10.840  14.933  25.912  0.00  0.00    -0.266 OA
BRANCH  34  36
HETATM   36  O   UNL     1       9.869  15.304  20.166  0.00  0.00    -0.389 OA
HETATM   37  C   UNL     1       8.778  14.418  20.394  0.00  0.00     0.202 C 
ENDBRANCH  34  36
ENDBRANCH   1  29
TORSDOF 6
ENDMDL
MODEL 7
REMARK VINA RESULT:    -8.090      2.404      4.298
REMARK INTER + INTRA:         -11.630
REMARK INTER:                 -10.409
REMARK INTRA:                  -1.221
REMARK UNBOUND:                -0.939
REMARK  6 active torsions:
REMARK  status: ('A' for Active; 'I' for Inactive)
REMARK    1  A    between atoms: O_2  and  C_3 
REMARK       I    between atoms: N_6  and  C_7 
REMARK    2  A    between atoms: C_7  and  C_9 
REMARK    3  A    between atoms: C_15  and  O_16 
REMARK    4  A    between atoms: C_17  and  C_18 
REMARK       I    between atoms: C_18  and  N_20 
REMARK    5  A    between atoms: N_20  and  C_22 
REMARK    6  A    between atoms: C_25  and  N_26 
ROOT
HETATM    1  C   UNL     1      11.794  14.355  23.337  0.00  0.00     0.157 A 
HETATM    2  N   UNL     1      12.928  14.524  24.052  0.00  0.00    -0.168 NA
HETATM    3  N   UNL     1      12.513  14.778  25.298  0.00  0.00    -0.277 N 
HETATM    4  H   UNL     1      13.214  14.938  26.010  0.00  0.00     0.189 HD
HETATM    5  C   UNL     1      11.158  14.764  25.452  0.00  0.00     0.065 A 
HETATM    6  C   UNL     1      10.357  14.949  26.578  0.00  0.00     0.069 C 
HETATM    7  C   UNL     1       8.973  14.794  26.399  0.00  0.00     0.083 C 
HETATM    8  C   UNL     1       8.402  14.527  25.137  0.00  0.00     0.066 C 
HETATM    9  C   UNL     1       9.247  14.485  24.016  0.00  0.00     0.036 C 
HETATM   10  C   UNL     1      10.648  14.521  24.185  0.00  0.00     0.029 A 
ENDROOT
BRANCH   8  11
HETATM   11  C   UNL     1       6.915  14.434  24.965  0.00  0.00     0.260 C 
HETATM   12  O   UNL     1       6.330  15.521  24.979  0.00  0.00    -0.267 OA
HETATM   13  N   UNL     1       6.246  13.184  24.805  0.00  0.00    -0.318 N 
HETATM   14  C   UNL     1       6.876  11.870  25.006  0.00  0.00     0.159 C 
BRANCH  13  15
HETATM   15  C   UNL     1       4.800  13.151  24.636  0.00  0.00     0.037 A 
HETATM   16  C   UNL     1       4.198  12.921  23.398  0.00  0.00     0.032 A 
HETATM   17  C   UNL     1       2.801  12.939  23.239  0.00  0.00     0.031 A 
HETATM   18  C   UNL     1       1.924  13.164  24.306  0.00  0.00     0.030 A 
HETATM   19  C   UNL     1       2.532  13.345  25.552  0.00  0.00     0.031 A 
HETATM   20  C   UNL     1       3.930  13.338  25.718  0.00  0.00     0.032 A 
BRANCH  18  21
HETATM   21  N   UNL     1       0.557  13.187  24.143  0.00  0.00    -0.377 N 
HETATM   22  C   UNL     1      -0.103  12.949  22.850  0.00  0.00     0.149 C 
HETATM   23  C   UNL     1      -1.159  11.844  23.027  0.00  0.00     0.187 C 
HETATM   24  O   UNL     1      -2.113  12.176  24.050  0.00  0.00    -0.388 OA
HETATM   25  C   UNL     1      -1.445  12.371  25.311  0.00  0.00     0.187 C 
HETATM   26  C   UNL     1      -0.394  13.489  25.226  0.00  0.00     0.149 C 
ENDBRANCH  18  21
ENDBRANCH  13  15
ENDBRANCH   8  11
BRANCH   7  27
HETATM   27  O   UNL     1       8.190  14.900  27.519  0.00  0.00    -0.360 OA
HETATM   28  H   UNL     1       8.404  14.195  28.152  0.00  0.00     0.217 HD
ENDBRANCH   7  27
BRANCH   1  29
HETATM   29  C   UNL     1      11.747  14.002  21.893  0.00  0.00     0.275 C 
HETATM   30  N   UNL     1      11.193  12.787  21.506  0.00  0.00    -0.344 N 
HETATM   31  C   UNL     1      11.081  12.411  20.111  0.00  0.00     0.129 C 
HETATM   32  C   UNL     1      10.658  11.739  22.364  0.00  0.00     0.158 C 
HETATM   33  C   UNL     1      10.044  11.305  20.101  0.00  0.00     0.053 C 
HETATM   34  C   UNL     1      10.285  10.587  21.428  0.00  0.00     0.140 C 
HETATM   35  O   UNL     1      12.176  14.789  21.044  0.00  0.00    -0.266 OA
BRANCH  34  36
HETATM   36  O   UNL     1       9.110   9.878  21.810  0.00  0.00    -0.389 OA
HETATM   37  C   UNL     1       7.922  10.640  21.629  0.00  0.00     0.202 C 
ENDBRANCH  34  36
ENDBRANCH   1  29
TORSDOF 6
ENDMDL
MODEL 8
REMARK VINA RESULT:    -8.075      2.122      4.200
REMARK INTER + INTRA:         -11.610
REMARK INTER:                 -10.526
REMARK INTRA:                  -1.084
REMARK UNBOUND:                -0.939
REMARK  6 active torsions:
REMARK  status: ('A' for Active; 'I' for Inactive)
REMARK    1  A    between atoms: O_2  and  C_3 
REMARK       I    between atoms: N_6  and  C_7 
REMARK    2  A    between atoms: C_7  and  C_9 
REMARK    3  A    between atoms: C_15  and  O_16 
REMARK    4  A    between atoms: C_17  and  C_18 
REMARK       I    between atoms: C_18  and  N_20 
REMARK    5  A    between atoms: N_20  and  C_22 
REMARK    6  A    between atoms: C_25  and  N_26 
ROOT
HETATM    1  C   UNL     1      12.535  12.451  25.232  0.00  0.00     0.157 A 
HETATM    2  N   UNL     1      13.648  12.927  25.833  0.00  0.00    -0.168 NA
HETATM    3  N   UNL     1      13.209  13.876  26.666  0.00  0.00    -0.277 N 
HETATM    4  H   UNL     1      13.891  14.370  27.227  0.00  0.00     0.189 HD
HETATM    5  C   UNL     1      11.855  14.040  26.666  0.00  0.00     0.065 A 
HETATM    6  C   UNL     1      11.030  14.889  27.401  0.00  0.00     0.069 C 
HETATM    7  C   UNL     1       9.647  14.748  27.206  0.00  0.00     0.083 C 
HETATM    8  C   UNL     1       9.106  13.842  26.270  0.00  0.00     0.066 C 
HETATM    9  C   UNL     1       9.991  13.110  25.462  0.00  0.00     0.036 C 
HETATM   10  C   UNL     1      11.378  13.146  25.717  0.00  0.00     0.029 A 
ENDROOT
BRANCH   8  11
HETATM   11  C   UNL     1       7.627  13.763  26.034  0.00  0.00     0.260 C 
HETATM   12  O   UNL     1       7.015  13.071  26.853  0.00  0.00    -0.267 OA
HETATM   13  N   UNL     1       6.995  14.434  24.945  0.00  0.00    -0.318 N 
HETATM   14  C   UNL     1       7.713  15.076  23.832  0.00  0.00     0.159 C 
BRANCH  13  15
HETATM   15  C   UNL     1       5.554  14.328  24.765  0.00  0.00     0.037 A 
HETATM   16  C   UNL     1       4.678  15.344  25.149  0.00  0.00     0.032 A 
HETATM   17  C   UNL     1       3.284  15.210  25.014  0.00  0.00     0.031 A 
HETATM   18  C   UNL     1       2.686  14.069  24.469  0.00  0.00     0.030 A 
HETATM   19  C   UNL     1       3.572  13.076  24.042  0.00  0.00     0.031 A 
HETATM   20  C   UNL     1       4.968  13.198  24.181  0.00  0.00     0.032 A 
BRANCH  18  21
HETATM   21  N   UNL     1       1.321  13.941  24.345  0.00  0.00    -0.377 N 
HETATM   22  C   UNL     1       0.620  14.017  23.054  0.00  0.00     0.149 C 
HETATM   23  C   UNL     1      -0.266  12.769  22.896  0.00  0.00     0.187 C 
HETATM   24  O   UNL     1      -1.191  12.629  23.989  0.00  0.00    -0.388 OA
HETATM   25  C   UNL     1      -0.479  12.524  25.235  0.00  0.00     0.187 C 
HETATM   26  C   UNL     1       0.407  13.755  25.485  0.00  0.00     0.149 C 
ENDBRANCH  18  21
ENDBRANCH  13  15
ENDBRANCH   8  11
BRANCH   7  27
HETATM   27  O   UNL     1       8.830  15.528  27.984  0.00  0.00    -0.360 OA
HETATM   28  H   UNL     1       8.990  15.353  28.926  0.00  0.00     0.217 HD
ENDBRANCH   7  27
BRANCH   1  29
HETATM   29  C   UNL     1      12.515  11.337  24.247  0.00  0.00     0.275 C 
HETATM   30  N   UNL     1      12.206  11.607  22.918  0.00  0.00    -0.344 N 
HETATM   31  C   UNL     1      12.215  10.568  21.908  0.00  0.00     0.129 C 
HETATM   32  C   UNL     1      11.842  12.889  22.332  0.00  0.00     0.158 C 
HETATM   33  C   UNL     1      12.298  11.321  20.594  0.00  0.00     0.053 C 
HETATM   34  C   UNL     1      11.500  12.594  20.869  0.00  0.00     0.140 C 
HETATM   35  O   UNL     1      12.792  10.187  24.600  0.00  0.00    -0.266 OA
BRANCH  34  36
HETATM   36  O   UNL     1      11.896  13.614  19.958  0.00  0.00    -0.389 OA
HETATM   37  C   UNL     1      12.495  14.731  20.605  0.00  0.00     0.202 C 
ENDBRANCH  34  36
ENDBRANCH   1  29
TORSDOF 6
ENDMDL
MODEL 9
REMARK VINA RESULT:    -7.959      3.329     10.909
REMARK INTER + INTRA:         -11.457
REMARK INTER:                 -10.518
REMARK INTRA:                  -0.939
REMARK UNBOUND:                -0.939
REMARK  6 active torsions:
REMARK  status: ('A' for Active; 'I' for Inactive)
REMARK    1  A    between atoms: O_2  and  C_3 
REMARK       I    between atoms: N_6  and  C_7 
REMARK    2  A    between atoms: C_7  and  C_9 
REMARK    3  A    between atoms: C_15  and  O_16 
REMARK    4  A    between atoms: C_17  and  C_18 
REMARK       I    between atoms: C_18  and  N_20 
REMARK    5  A    between atoms: N_20  and  C_22 
REMARK    6  A    between atoms: C_25  and  N_26 
ROOT
HETATM    1  C   UNL     1      -0.341  10.264  25.078  0.00  0.00     0.157 A 
HETATM    2  N   UNL     1      -1.493  10.831  25.500  0.00  0.00    -0.168 NA
HETATM    3  N   UNL     1      -1.267  12.147  25.447  0.00  0.00    -0.277 N 
HETATM    4  H   UNL     1      -2.015  12.770  25.725  0.00  0.00     0.189 HD
HETATM    5  C   UNL     1      -0.028  12.486  24.990  0.00  0.00     0.065 A 
HETATM    6  C   UNL     1       0.564  13.728  24.767  0.00  0.00     0.069 C 
HETATM    7  C   UNL     1       1.853  13.721  24.211  0.00  0.00     0.083 C 
HETATM    8  C   UNL     1       2.552  12.526  23.944  0.00  0.00     0.066 C 
HETATM    9  C   UNL     1       1.959  11.308  24.314  0.00  0.00     0.036 C 
HETATM   10  C   UNL     1       0.622  11.281  24.765  0.00  0.00     0.029 A 
ENDROOT
BRANCH   8  11
HETATM   11  C   UNL     1       3.955  12.551  23.413  0.00  0.00     0.260 C 
HETATM   12  O   UNL     1       4.061  12.204  22.233  0.00  0.00    -0.267 OA
HETATM   13  N   UNL     1       5.065  12.942  24.220  0.00  0.00    -0.318 N 
HETATM   14  C   UNL     1       5.006  13.143  25.677  0.00  0.00     0.159 C 
BRANCH  13  15
HETATM   15  C   UNL     1       6.406  12.954  23.654  0.00  0.00     0.037 A 
HETATM   16  C   UNL     1       7.281  11.875  23.784  0.00  0.00     0.032 A 
HETATM   17  C   UNL     1       8.591  11.918  23.274  0.00  0.00     0.031 A 
HETATM   18  C   UNL     1       9.095  13.026  22.585  0.00  0.00     0.030 A 
HETATM   19  C   UNL     1       8.198  14.084  22.415  0.00  0.00     0.031 A 
HETATM   20  C   UNL     1       6.888  14.053  22.931  0.00  0.00     0.032 A 
BRANCH  18  21
HETATM   21  N   UNL     1      10.381  13.064  22.093  0.00  0.00    -0.377 N 
HETATM   22  C   UNL     1      11.058  11.891  21.519  0.00  0.00     0.149 C 
HETATM   23  C   UNL     1      11.594  12.261  20.125  0.00  0.00     0.187 C 
HETATM   24  O   UNL     1      12.469  13.400  20.174  0.00  0.00    -0.388 OA
HETATM   25  C   UNL     1      11.773  14.541  20.708  0.00  0.00     0.187 C 
HETATM   26  C   UNL     1      11.235  14.264  22.121  0.00  0.00     0.149 C 
ENDBRANCH  18  21
ENDBRANCH  13  15
ENDBRANCH   8  11
BRANCH   7  27
HETATM   27  O   UNL     1       2.407  14.941  23.920  0.00  0.00    -0.360 OA
HETATM   28  H   UNL     1       3.283  15.025  24.333  0.00  0.00     0.217 HD
ENDBRANCH   7  27
BRANCH   1  29
HETATM   29  C   UNL     1      -0.125   8.801  24.918  0.00  0.00     0.275 C 
HETATM   30  N   UNL     1      -0.083   7.991  26.048  0.00  0.00    -0.344 N 
HETATM   31  C   UNL     1       0.080   6.554  25.950  0.00  0.00     0.129 C 
HETATM   32  C   UNL     1      -0.186   8.401  27.442  0.00  0.00     0.158 C 
HETATM   33  C   UNL     1      -0.388   6.030  27.293  0.00  0.00     0.053 C 
HETATM   34  C   UNL     1       0.035   7.130  28.266  0.00  0.00     0.140 C 
HETATM   35  O   UNL     1      -0.008   8.306  23.794  0.00  0.00    -0.266 OA
BRANCH  34  36
HETATM   36  O   UNL     1      -0.755   7.054  29.449  0.00  0.00    -0.389 OA
HETATM   37  C   UNL     1      -0.016   6.603  30.578  0.00  0.00     0.202 C 
ENDBRANCH  34  36
ENDBRANCH   1  29
TORSDOF 6
ENDMDL
