MODEL 1
REMARK VINA RESULT:    -5.783      0.000      0.000
REMARK INTER + INTRA:          -8.566
REMARK INTER:                  -7.500
REMARK INTRA:                  -1.066
REMARK UNBOUND:                -1.094
REMARK  5 active torsions:
REMARK  status: ('A' for Active; 'I' for Inactive)
REMARK    1  A    between atoms: N8_1  and  C24_2 
REMARK    2  A    between atoms: N8_1  and  C7_8 
REMARK    3  A    between atoms: C2_13  and  N1_14 
REMARK    4  A    between atoms: N1_14  and  C17_15 
REMARK    5  A    between atoms: C14_16  and  C13_19 
ROOT
ATOM      1  C17 FTA A   1       3.279  16.992  11.140  1.00  0.00     0.142 C 
ATOM      2  C14 FTA A   1       2.609  16.653  12.260  1.00  0.00     0.158 C 
ATOM      3  C18 FTA A   1       2.937  17.282  13.522  1.00  0.00     0.069 C 
ATOM      4  N21 FTA A   1       3.346  17.827  14.476  1.00  0.00    -0.197 NA
ENDROOT
BRANCH   2   5
ATOM      5  C13 FTA A   1       1.527  15.646  12.184  1.00  0.00     0.197 A 
ATOM      6  N15 FTA A   1       0.908  15.021  13.265  1.00  0.00    -0.093 NA
ATOM      7  N19 FTA A   1      -0.014  14.117  12.752  1.00  0.00    -0.231 N 
ATOM      8  N20 FTA A   1       0.022  14.166  11.367  1.00  0.00    -0.017 NA
ATOM      9  H15 FTA A   1      -0.627  13.507  13.312  1.00  0.00     0.200 HD
ATOM     10  N16 FTA A   1       0.969  15.121  11.012  1.00  0.00    -0.090 NA
ENDBRANCH   2   5
BRANCH   1  11
ATOM     11  N1  FTA A   1       3.841  16.019  10.398  1.00  0.00    -0.389 N 
ATOM     12  H11 FTA A   1       3.700  16.057   9.378  1.00  0.00     0.159 HD
BRANCH  11  13
ATOM     13  C2  FTA A   1       4.615  14.944  10.914  1.00  0.00     0.028 A 
ATOM     14  C4  FTA A   1       5.838  15.148  11.548  1.00  0.00     0.031 A 
ATOM     15  C6  FTA A   1       6.653  14.042  11.825  1.00  0.00     0.031 A 
ATOM     16  C7  FTA A   1       6.280  12.744  11.485  1.00  0.00     0.032 A 
ATOM     17  C5  FTA A   1       5.051  12.555  10.879  1.00  0.00     0.031 A 
ATOM     18  C3  FTA A   1       4.234  13.640  10.584  1.00  0.00     0.031 A 
BRANCH  16  19
ATOM     19  N8  FTA A   1       7.170  11.642  11.563  1.00  0.00    -0.356 N 
ATOM     20  H1  FTA A   1       7.197  11.119  12.451  1.00  0.00     0.166 HD
BRANCH  19  21
ATOM     21  C24 FTA A   1       8.030  11.198  10.514  1.00  0.00     0.032 A 
ATOM     22  C26 FTA A   1       7.627  10.250   9.604  1.00  0.00     0.029 A 
ATOM     23  C28 FTA A   1       8.560   9.739   8.722  1.00  0.00     0.002 A 
ATOM     24  C30 FTA A   1       9.876  10.168   8.702  1.00  0.00     0.000 A 
ATOM     25  C29 FTA A   1      10.282  11.139   9.579  1.00  0.00     0.002 A 
ATOM     26  C27 FTA A   1       9.339  11.656  10.475  1.00  0.00     0.029 A 
ENDBRANCH  19  21
ENDBRANCH  16  19
ENDBRANCH  11  13
ENDBRANCH   1  11
TORSDOF 5
ENDMDL
MODEL 2
REMARK VINA RESULT:    -5.632      1.193      1.785
REMARK INTER + INTRA:          -8.373
REMARK INTER:                  -7.362
REMARK INTRA:                  -1.010
REMARK UNBOUND:                -1.094
REMARK  5 active torsions:
REMARK  status: ('A' for Active; 'I' for Inactive)
REMARK    1  A    between atoms: N8_1  and  C24_2 
REMARK    2  A    between atoms: N8_1  and  C7_8 
REMARK    3  A    between atoms: C2_13  and  N1_14 
REMARK    4  A    between atoms: N1_14  and  C17_15 
REMARK    5  A    between atoms: C14_16  and  C13_19 
ROOT
ATOM      1  C17 FTA A   1       3.224  17.442  12.240  1.00  0.00     0.142 C 
ATOM      2  C14 FTA A   1       2.965  17.233  13.546  1.00  0.00     0.158 C 
ATOM      3  C18 FTA A   1       3.927  17.629  14.551  1.00  0.00     0.069 C 
ATOM      4  N21 FTA A   1       4.817  17.946  15.245  1.00  0.00    -0.197 NA
ENDROOT
BRANCH   2   5
ATOM      5  C13 FTA A   1       1.681  16.610  13.942  1.00  0.00     0.197 A 
ATOM      6  N15 FTA A   1       0.785  17.103  14.889  1.00  0.00    -0.093 NA
ATOM      7  N19 FTA A   1      -0.260  16.194  14.988  1.00  0.00    -0.231 N 
ATOM      8  N20 FTA A   1      -0.029  15.138  14.118  1.00  0.00    -0.017 NA
ATOM      9  H15 FTA A   1      -1.077  16.288  15.608  1.00  0.00     0.200 HD
ATOM     10  N16 FTA A   1       1.169  15.399  13.461  1.00  0.00    -0.090 NA
ENDBRANCH   2   5
BRANCH   1  11
ATOM     11  N1  FTA A   1       3.128  16.408  11.382  1.00  0.00    -0.389 N 
ATOM     12  H11 FTA A   1       2.279  16.349  10.801  1.00  0.00     0.159 HD
BRANCH  11  13
ATOM     13  C2  FTA A   1       4.108  15.392  11.218  1.00  0.00     0.028 A 
ATOM     14  C4  FTA A   1       3.773  14.092  10.847  1.00  0.00     0.031 A 
ATOM     15  C6  FTA A   1       4.748  13.089  10.927  1.00  0.00     0.031 A 
ATOM     16  C7  FTA A   1       6.043  13.349  11.368  1.00  0.00     0.032 A 
ATOM     17  C5  FTA A   1       6.367  14.650  11.709  1.00  0.00     0.031 A 
ATOM     18  C3  FTA A   1       5.411  15.656  11.650  1.00  0.00     0.031 A 
BRANCH  16  19
ATOM     19  N8  FTA A   1       6.979  12.323  11.655  1.00  0.00    -0.356 N 
ATOM     20  H1  FTA A   1       7.130  12.085  12.646  1.00  0.00     0.166 HD
BRANCH  19  21
ATOM     21  C24 FTA A   1       7.730  11.594  10.684  1.00  0.00     0.032 A 
ATOM     22  C26 FTA A   1       7.133  10.675   9.854  1.00  0.00     0.029 A 
ATOM     23  C28 FTA A   1       7.937   9.880   9.059  1.00  0.00     0.002 A 
ATOM     24  C30 FTA A   1       9.316   9.997   9.046  1.00  0.00     0.000 A 
ATOM     25  C29 FTA A   1       9.921  10.934   9.841  1.00  0.00     0.002 A 
ATOM     26  C27 FTA A   1       9.109  11.738  10.650  1.00  0.00     0.029 A 
ENDBRANCH  19  21
ENDBRANCH  16  19
ENDBRANCH  11  13
ENDBRANCH   1  11
TORSDOF 5
ENDMDL
MODEL 3
REMARK VINA RESULT:    -5.606      1.844      2.443
REMARK INTER + INTRA:          -8.338
REMARK INTER:                  -7.291
REMARK INTRA:                  -1.047
REMARK UNBOUND:                -1.094
REMARK  5 active torsions:
REMARK  status: ('A' for Active; 'I' for Inactive)
REMARK    1  A    between atoms: N8_1  and  C24_2 
REMARK    2  A    between atoms: N8_1  and  C7_8 
REMARK    3  A    between atoms: C2_13  and  N1_14 
REMARK    4  A    between atoms: N1_14  and  C17_15 
REMARK    5  A    between atoms: C14_16  and  C13_19 
ROOT
ATOM      1  C17 FTA A   1       2.098  15.809   9.054  1.00  0.00     0.142 C 
ATOM      2  C14 FTA A   1       0.914  16.060   9.646  1.00  0.00     0.158 C 
ATOM      3  C18 FTA A   1       0.039  17.084   9.117  1.00  0.00     0.069 C 
ATOM      4  N21 FTA A   1      -0.537  17.975   8.617  1.00  0.00    -0.197 NA
ENDROOT
BRANCH   2   5
ATOM      5  C13 FTA A   1       0.510  15.270  10.832  1.00  0.00     0.197 A 
ATOM      6  N15 FTA A   1       1.096  15.324  12.095  1.00  0.00    -0.093 NA
ATOM      7  N19 FTA A   1       0.448  14.393  12.896  1.00  0.00    -0.231 N 
ATOM      8  N20 FTA A   1      -0.534  13.756  12.151  1.00  0.00    -0.017 NA
ATOM      9  H15 FTA A   1       0.662  14.205  13.886  1.00  0.00     0.200 HD
ATOM     10  N16 FTA A   1      -0.504  14.306  10.874  1.00  0.00    -0.090 NA
ENDBRANCH   2   5
BRANCH   1  11
ATOM     11  N1  FTA A   1       3.217  15.821   9.804  1.00  0.00    -0.389 N 
ATOM     12  H11 FTA A   1       3.386  16.648  10.394  1.00  0.00     0.159 HD
BRANCH  11  13
ATOM     13  C2  FTA A   1       4.182  14.777   9.845  1.00  0.00     0.028 A 
ATOM     14  C4  FTA A   1       5.041  14.521   8.779  1.00  0.00     0.031 A 
ATOM     15  C6  FTA A   1       5.803  13.344   8.788  1.00  0.00     0.031 A 
ATOM     16  C7  FTA A   1       5.727  12.422   9.828  1.00  0.00     0.032 A 
ATOM     17  C5  FTA A   1       4.888  12.704  10.892  1.00  0.00     0.031 A 
ATOM     18  C3  FTA A   1       4.114  13.858  10.895  1.00  0.00     0.031 A 
BRANCH  16  19
ATOM     19  N8  FTA A   1       6.324  11.137   9.762  1.00  0.00    -0.356 N 
ATOM     20  H1  FTA A   1       5.700  10.321   9.855  1.00  0.00     0.166 HD
BRANCH  19  21
ATOM     21  C24 FTA A   1       7.716  10.880   9.577  1.00  0.00     0.032 A 
ATOM     22  C26 FTA A   1       8.159   9.792   8.862  1.00  0.00     0.029 A 
ATOM     23  C28 FTA A   1       9.511   9.504   8.866  1.00  0.00     0.002 A 
ATOM     24  C30 FTA A   1      10.436  10.287   9.536  1.00  0.00     0.000 A 
ATOM     25  C29 FTA A   1      10.011  11.394  10.220  1.00  0.00     0.002 A 
ATOM     26  C27 FTA A   1       8.643  11.687  10.221  1.00  0.00     0.029 A 
ENDBRANCH  19  21
ENDBRANCH  16  19
ENDBRANCH  11  13
ENDBRANCH   1  11
TORSDOF 5
ENDMDL
MODEL 4
REMARK VINA RESULT:    -5.564      1.703      2.410
REMARK INTER + INTRA:          -8.284
REMARK INTER:                  -7.377
REMARK INTRA:                  -0.907
REMARK UNBOUND:                -1.094
REMARK  5 active torsions:
REMARK  status: ('A' for Active; 'I' for Inactive)
REMARK    1  A    between atoms: N8_1  and  C24_2 
REMARK    2  A    between atoms: N8_1  and  C7_8 
REMARK    3  A    between atoms: C2_13  and  N1_14 
REMARK    4  A    between atoms: N1_14  and  C17_15 
REMARK    5  A    between atoms: C14_16  and  C13_19 
ROOT
ATOM      1  C17 FTA A   1       2.071  15.239  11.735  1.00  0.00     0.142 C 
ATOM      2  C14 FTA A   1       0.828  14.963  12.178  1.00  0.00     0.158 C 
ATOM      3  C18 FTA A   1       0.518  15.068  13.588  1.00  0.00     0.069 C 
ATOM      4  N21 FTA A   1       0.428  15.138  14.755  1.00  0.00    -0.197 NA
ENDROOT
BRANCH   2   5
ATOM      5  C13 FTA A   1      -0.219  14.569  11.208  1.00  0.00     0.197 A 
ATOM      6  N15 FTA A   1      -1.418  13.927  11.509  1.00  0.00    -0.093 NA
ATOM      7  N19 FTA A   1      -2.084  13.701  10.311  1.00  0.00    -0.231 N 
ATOM      8  N20 FTA A   1      -1.316  14.191   9.265  1.00  0.00    -0.017 NA
ATOM      9  H15 FTA A   1      -3.001  13.243  10.215  1.00  0.00     0.200 HD
ATOM     10  N16 FTA A   1      -0.164  14.739   9.820  1.00  0.00    -0.090 NA
ENDBRANCH   2   5
BRANCH   1  11
ATOM     11  N1  FTA A   1       2.709  14.328  10.975  1.00  0.00    -0.389 N 
ATOM     12  H11 FTA A   1       2.147  13.559  10.582  1.00  0.00     0.159 HD
BRANCH  11  13
ATOM     13  C2  FTA A   1       4.098  14.346  10.675  1.00  0.00     0.028 A 
ATOM     14  C4  FTA A   1       4.573  14.455   9.370  1.00  0.00     0.031 A 
ATOM     15  C6  FTA A   1       5.934  14.235   9.121  1.00  0.00     0.031 A 
ATOM     16  C7  FTA A   1       6.829  13.909  10.137  1.00  0.00     0.032 A 
ATOM     17  C5  FTA A   1       6.347  13.829  11.431  1.00  0.00     0.031 A 
ATOM     18  C3  FTA A   1       4.998  14.030  11.697  1.00  0.00     0.031 A 
BRANCH  16  19
ATOM     19  N8  FTA A   1       8.157  13.479   9.884  1.00  0.00    -0.356 N 
ATOM     20  H1  FTA A   1       8.876  14.209   9.774  1.00  0.00     0.166 HD
BRANCH  19  21
ATOM     21  C24 FTA A   1       8.579  12.120   9.770  1.00  0.00     0.032 A 
ATOM     22  C26 FTA A   1       9.892  11.756   9.952  1.00  0.00     0.029 A 
ATOM     23  C28 FTA A   1      10.266  10.458   9.659  1.00  0.00     0.002 A 
ATOM     24  C30 FTA A   1       9.362   9.506   9.220  1.00  0.00     0.000 A 
ATOM     25  C29 FTA A   1       8.044   9.846   9.073  1.00  0.00     0.002 A 
ATOM     26  C27 FTA A   1       7.663  11.161   9.365  1.00  0.00     0.029 A 
ENDBRANCH  19  21
ENDBRANCH  16  19
ENDBRANCH  11  13
ENDBRANCH   1  11
TORSDOF 5
ENDMDL
MODEL 5
REMARK VINA RESULT:    -5.512     11.187     14.146
REMARK INTER + INTRA:          -8.217
REMARK INTER:                  -7.214
REMARK INTRA:                  -1.002
REMARK UNBOUND:                -1.094
REMARK  5 active torsions:
REMARK  status: ('A' for Active; 'I' for Inactive)
REMARK    1  A    between atoms: N8_1  and  C24_2 
REMARK    2  A    between atoms: N8_1  and  C7_8 
REMARK    3  A    between atoms: C2_13  and  N1_14 
REMARK    4  A    between atoms: N1_14  and  C17_15 
REMARK    5  A    between atoms: C14_16  and  C13_19 
ROOT
ATOM      1  C17 FTA A   1       8.439  18.666  18.504  1.00  0.00     0.142 C 
ATOM      2  C14 FTA A   1       8.750  17.942  17.410  1.00  0.00     0.158 C 
ATOM      3  C18 FTA A   1       7.711  17.260  16.669  1.00  0.00     0.069 C 
ATOM      4  N21 FTA A   1       6.781  16.719  16.204  1.00  0.00    -0.197 NA
ENDROOT
BRANCH   2   5
ATOM      5  C13 FTA A   1      10.161  17.864  16.966  1.00  0.00     0.197 A 
ATOM      6  N15 FTA A   1      10.624  17.258  15.800  1.00  0.00    -0.093 NA
ATOM      7  N19 FTA A   1      12.008  17.371  15.792  1.00  0.00    -0.231 N 
ATOM      8  N20 FTA A   1      12.417  18.036  16.938  1.00  0.00    -0.017 NA
ATOM      9  H15 FTA A   1      12.632  17.016  15.052  1.00  0.00     0.200 HD
ATOM     10  N16 FTA A   1      11.273  18.353  17.662  1.00  0.00    -0.090 NA
ENDBRANCH   2   5
BRANCH   1  11
ATOM     11  N1  FTA A   1       9.092  18.418  19.656  1.00  0.00    -0.389 N 
ATOM     12  H11 FTA A   1       9.791  17.662  19.654  1.00  0.00     0.159 HD
BRANCH  11  13
ATOM     13  C2  FTA A   1       8.890  19.123  20.874  1.00  0.00     0.028 A 
ATOM     14  C4  FTA A   1       9.185  20.477  21.005  1.00  0.00     0.031 A 
ATOM     15  C6  FTA A   1       9.183  21.054  22.282  1.00  0.00     0.031 A 
ATOM     16  C7  FTA A   1       8.899  20.314  23.427  1.00  0.00     0.032 A 
ATOM     17  C5  FTA A   1       8.583  18.975  23.278  1.00  0.00     0.031 A 
ATOM     18  C3  FTA A   1       8.593  18.382  22.022  1.00  0.00     0.031 A 
BRANCH  16  19
ATOM     19  N8  FTA A   1       9.094  20.819  24.738  1.00  0.00    -0.356 N 
ATOM     20  H1  FTA A   1       8.397  21.488  25.095  1.00  0.00     0.166 HD
BRANCH  19  21
ATOM     21  C24 FTA A   1      10.178  20.477  25.602  1.00  0.00     0.032 A 
ATOM     22  C26 FTA A   1      11.479  20.471  25.159  1.00  0.00     0.029 A 
ATOM     23  C28 FTA A   1      12.460  19.967  25.991  1.00  0.00     0.002 A 
ATOM     24  C30 FTA A   1      12.185  19.497  27.264  1.00  0.00     0.000 A 
ATOM     25  C29 FTA A   1      10.898  19.533  27.732  1.00  0.00     0.002 A 
ATOM     26  C27 FTA A   1       9.902  20.040  26.890  1.00  0.00     0.029 A 
ENDBRANCH  19  21
ENDBRANCH  16  19
ENDBRANCH  11  13
ENDBRANCH   1  11
TORSDOF 5
ENDMDL
MODEL 6
REMARK VINA RESULT:    -5.408     11.014     13.989
REMARK INTER + INTRA:          -8.082
REMARK INTER:                  -7.075
REMARK INTRA:                  -1.007
REMARK UNBOUND:                -1.094
REMARK  5 active torsions:
REMARK  status: ('A' for Active; 'I' for Inactive)
REMARK    1  A    between atoms: N8_1  and  C24_2 
REMARK    2  A    between atoms: N8_1  and  C7_8 
REMARK    3  A    between atoms: C2_13  and  N1_14 
REMARK    4  A    between atoms: N1_14  and  C17_15 
REMARK    5  A    between atoms: C14_16  and  C13_19 
ROOT
ATOM      1  C17 FTA A   1       5.707  19.186  20.315  1.00  0.00     0.142 C 
ATOM      2  C14 FTA A   1       5.510  18.504  19.169  1.00  0.00     0.158 C 
ATOM      3  C18 FTA A   1       4.172  18.330  18.647  1.00  0.00     0.069 C 
ATOM      4  N21 FTA A   1       3.037  18.220  18.375  1.00  0.00    -0.197 NA
ENDROOT
BRANCH   2   5
ATOM      5  C13 FTA A   1       6.675  17.949  18.443  1.00  0.00     0.197 A 
ATOM      6  N15 FTA A   1       8.016  18.215  18.714  1.00  0.00    -0.093 NA
ATOM      7  N19 FTA A   1       8.776  17.531  17.773  1.00  0.00    -0.231 N 
ATOM      8  N20 FTA A   1       7.929  16.844  16.916  1.00  0.00    -0.017 NA
ATOM      9  H15 FTA A   1       9.805  17.534  17.720  1.00  0.00     0.200 HD
ATOM     10  N16 FTA A   1       6.626  17.093  17.337  1.00  0.00    -0.090 NA
ENDBRANCH   2   5
BRANCH   1  11
ATOM     11  N1  FTA A   1       6.415  18.608  21.304  1.00  0.00    -0.389 N 
ATOM     12  H11 FTA A   1       6.090  17.694  21.650  1.00  0.00     0.159 HD
BRANCH  11  13
ATOM     13  C2  FTA A   1       7.578  19.162  21.906  1.00  0.00     0.028 A 
ATOM     14  C4  FTA A   1       8.465  18.391  22.653  1.00  0.00     0.031 A 
ATOM     15  C6  FTA A   1       9.456  19.034  23.407  1.00  0.00     0.031 A 
ATOM     16  C7  FTA A   1       9.582  20.421  23.434  1.00  0.00     0.032 A 
ATOM     17  C5  FTA A   1       8.709  21.171  22.666  1.00  0.00     0.031 A 
ATOM     18  C3  FTA A   1       7.711  20.554  21.923  1.00  0.00     0.031 A 
BRANCH  16  19
ATOM     19  N8  FTA A   1      10.434  21.098  24.343  1.00  0.00    -0.356 N 
ATOM     20  H1  FTA A   1      10.812  22.010  24.047  1.00  0.00     0.166 HD
BRANCH  19  21
ATOM     21  C24 FTA A   1      10.811  20.621  25.635  1.00  0.00     0.032 A 
ATOM     22  C26 FTA A   1      12.066  20.118  25.880  1.00  0.00     0.029 A 
ATOM     23  C28 FTA A   1      12.313  19.515  27.099  1.00  0.00     0.002 A 
ATOM     24  C30 FTA A   1      11.352  19.429  28.092  1.00  0.00     0.000 A 
ATOM     25  C29 FTA A   1      10.109  19.960  27.875  1.00  0.00     0.002 A 
ATOM     26  C27 FTA A   1       9.855  20.568  26.640  1.00  0.00     0.029 A 
ENDBRANCH  19  21
ENDBRANCH  16  19
ENDBRANCH  11  13
ENDBRANCH   1  11
TORSDOF 5
ENDMDL
MODEL 7
REMARK VINA RESULT:    -5.349      3.487      5.678
REMARK INTER + INTRA:          -8.007
REMARK INTER:                  -6.913
REMARK INTRA:                  -1.094
REMARK UNBOUND:                -1.094
REMARK  5 active torsions:
REMARK  status: ('A' for Active; 'I' for Inactive)
REMARK    1  A    between atoms: N8_1  and  C24_2 
REMARK    2  A    between atoms: N8_1  and  C7_8 
REMARK    3  A    between atoms: C2_13  and  N1_14 
REMARK    4  A    between atoms: N1_14  and  C17_15 
REMARK    5  A    between atoms: C14_16  and  C13_19 
ROOT
ATOM      1  C17 FTA A   1       4.535  17.562  16.075  1.00  0.00     0.142 C 
ATOM      2  C14 FTA A   1       5.081  17.778  17.288  1.00  0.00     0.158 C 
ATOM      3  C18 FTA A   1       4.256  18.236  18.386  1.00  0.00     0.069 C 
ATOM      4  N21 FTA A   1       3.484  18.657  19.160  1.00  0.00    -0.197 NA
ENDROOT
BRANCH   2   5
ATOM      5  C13 FTA A   1       6.527  17.529  17.491  1.00  0.00     0.197 A 
ATOM      6  N15 FTA A   1       7.320  18.066  18.502  1.00  0.00    -0.093 NA
ATOM      7  N19 FTA A   1       8.617  17.614  18.300  1.00  0.00    -0.231 N 
ATOM      8  N20 FTA A   1       8.647  16.804  17.175  1.00  0.00    -0.017 NA
ATOM      9  H15 FTA A   1       9.429  17.845  18.892  1.00  0.00     0.200 HD
ATOM     10  N16 FTA A   1       7.349  16.740  16.678  1.00  0.00    -0.090 NA
ENDBRANCH   2   5
BRANCH   1  11
ATOM     11  N1  FTA A   1       5.085  18.156  14.998  1.00  0.00    -0.389 N 
ATOM     12  H11 FTA A   1       5.440  19.117  15.113  1.00  0.00     0.159 HD
BRANCH  11  13
ATOM     13  C2  FTA A   1       5.215  17.558  13.715  1.00  0.00     0.028 A 
ATOM     14  C4  FTA A   1       4.110  17.143  12.976  1.00  0.00     0.031 A 
ATOM     15  C6  FTA A   1       4.313  16.358  11.833  1.00  0.00     0.031 A 
ATOM     16  C7  FTA A   1       5.584  15.977  11.412  1.00  0.00     0.032 A 
ATOM     17  C5  FTA A   1       6.673  16.420  12.142  1.00  0.00     0.031 A 
ATOM     18  C3  FTA A   1       6.493  17.187  13.286  1.00  0.00     0.031 A 
BRANCH  16  19
ATOM     19  N8  FTA A   1       5.802  15.019  10.390  1.00  0.00    -0.356 N 
ATOM     20  H1  FTA A   1       5.339  15.181   9.484  1.00  0.00     0.166 HD
BRANCH  19  21
ATOM     21  C24 FTA A   1       6.610  13.848  10.513  1.00  0.00     0.032 A 
ATOM     22  C26 FTA A   1       6.479  12.992  11.580  1.00  0.00     0.029 A 
ATOM     23  C28 FTA A   1       7.403  11.975  11.731  1.00  0.00     0.002 A 
ATOM     24  C30 FTA A   1       8.434  11.769  10.830  1.00  0.00     0.000 A 
ATOM     25  C29 FTA A   1       8.552  12.592   9.742  1.00  0.00     0.002 A 
ATOM     26  C27 FTA A   1       7.620  13.625   9.589  1.00  0.00     0.029 A 
ENDBRANCH  19  21
ENDBRANCH  16  19
ENDBRANCH  11  13
ENDBRANCH   1  11
TORSDOF 5
ENDMDL
MODEL 8
REMARK VINA RESULT:    -5.297      9.658     12.781
REMARK INTER + INTRA:          -7.939
REMARK INTER:                  -6.949
REMARK INTRA:                  -0.990
REMARK UNBOUND:                -1.094
REMARK  5 active torsions:
REMARK  status: ('A' for Active; 'I' for Inactive)
REMARK    1  A    between atoms: N8_1  and  C24_2 
REMARK    2  A    between atoms: N8_1  and  C7_8 
REMARK    3  A    between atoms: C2_13  and  N1_14 
REMARK    4  A    between atoms: N1_14  and  C17_15 
REMARK    5  A    between atoms: C14_16  and  C13_19 
ROOT
ATOM      1  C17 FTA A   1       5.479  19.561  18.024  1.00  0.00     0.142 C 
ATOM      2  C14 FTA A   1       5.855  18.273  17.899  1.00  0.00     0.158 C 
ATOM      3  C18 FTA A   1       4.976  17.213  18.343  1.00  0.00     0.069 C 
ATOM      4  N21 FTA A   1       4.192  16.467  18.795  1.00  0.00    -0.197 NA
ENDROOT
BRANCH   2   5
ATOM      5  C13 FTA A   1       7.167  17.953  17.291  1.00  0.00     0.197 A 
ATOM      6  N15 FTA A   1       8.008  16.904  17.655  1.00  0.00    -0.093 NA
ATOM      7  N19 FTA A   1       9.149  16.992  16.870  1.00  0.00    -0.231 N 
ATOM      8  N20 FTA A   1       9.035  18.083  16.021  1.00  0.00    -0.017 NA
ATOM      9  H15 FTA A   1       9.954  16.349  16.911  1.00  0.00     0.200 HD
ATOM     10  N16 FTA A   1       7.801  18.674  16.273  1.00  0.00    -0.090 NA
ENDBRANCH   2   5
BRANCH   1  11
ATOM     11  N1  FTA A   1       6.305  20.424  18.647  1.00  0.00    -0.389 N 
ATOM     12  H11 FTA A   1       6.454  21.343  18.206  1.00  0.00     0.159 HD
BRANCH  11  13
ATOM     13  C2  FTA A   1       6.986  20.163  19.867  1.00  0.00     0.028 A 
ATOM     14  C4  FTA A   1       8.376  20.119  19.945  1.00  0.00     0.031 A 
ATOM     15  C6  FTA A   1       8.976  19.632  21.114  1.00  0.00     0.031 A 
ATOM     16  C7  FTA A   1       8.227  19.189  22.201  1.00  0.00     0.032 A 
ATOM     17  C5  FTA A   1       6.848  19.263  22.118  1.00  0.00     0.031 A 
ATOM     18  C3  FTA A   1       6.234  19.729  20.962  1.00  0.00     0.031 A 
BRANCH  16  19
ATOM     19  N8  FTA A   1       8.801  18.503  23.302  1.00  0.00    -0.356 N 
ATOM     20  H1  FTA A   1       8.738  17.475  23.303  1.00  0.00     0.166 HD
BRANCH  19  21
ATOM     21  C24 FTA A   1       9.458  19.121  24.409  1.00  0.00     0.032 A 
ATOM     22  C26 FTA A   1      10.613  18.600  24.943  1.00  0.00     0.029 A 
ATOM     23  C28 FTA A   1      11.103  19.141  26.116  1.00  0.00     0.002 A 
ATOM     24  C30 FTA A   1      10.492  20.207  26.755  1.00  0.00     0.000 A 
ATOM     25  C29 FTA A   1       9.362  20.759  26.212  1.00  0.00     0.002 A 
ATOM     26  C27 FTA A   1       8.862  20.211  25.026  1.00  0.00     0.029 A 
ENDBRANCH  19  21
ENDBRANCH  16  19
ENDBRANCH  11  13
ENDBRANCH   1  11
TORSDOF 5
ENDMDL
MODEL 9
REMARK VINA RESULT:    -5.291      2.768      8.198
REMARK INTER + INTRA:          -7.931
REMARK INTER:                  -6.905
REMARK INTRA:                  -1.025
REMARK UNBOUND:                -1.094
REMARK  5 active torsions:
REMARK  status: ('A' for Active; 'I' for Inactive)
REMARK    1  A    between atoms: N8_1  and  C24_2 
REMARK    2  A    between atoms: N8_1  and  C7_8 
REMARK    3  A    between atoms: C2_13  and  N1_14 
REMARK    4  A    between atoms: N1_14  and  C17_15 
REMARK    5  A    between atoms: C14_16  and  C13_19 
ROOT
ATOM      1  C17 FTA A   1       7.962  13.872   9.247  1.00  0.00     0.142 C 
ATOM      2  C14 FTA A   1       9.014  13.053   9.047  1.00  0.00     0.158 C 
ATOM      3  C18 FTA A   1      10.290  13.596   8.635  1.00  0.00     0.069 C 
ATOM      4  N21 FTA A   1      11.240  14.166   8.249  1.00  0.00    -0.197 NA
ENDROOT
BRANCH   2   5
ATOM      5  C13 FTA A   1       8.856  11.598   9.268  1.00  0.00     0.197 A 
ATOM      6  N15 FTA A   1       7.703  10.954   9.713  1.00  0.00    -0.093 NA
ATOM      7  N19 FTA A   1       7.997   9.601   9.826  1.00  0.00    -0.231 N 
ATOM      8  N20 FTA A   1       9.319   9.391   9.461  1.00  0.00    -0.017 NA
ATOM      9  H15 FTA A   1       7.339   8.870  10.133  1.00  0.00     0.200 HD
ATOM     10  N16 FTA A   1       9.850  10.626   9.104  1.00  0.00    -0.090 NA
ENDBRANCH   2   5
BRANCH   1  11
ATOM     11  N1  FTA A   1       6.802  13.608   8.616  1.00  0.00    -0.389 N 
ATOM     12  H11 FTA A   1       6.852  13.105   7.718  1.00  0.00     0.159 HD
BRANCH  11  13
ATOM     13  C2  FTA A   1       5.513  13.971   9.094  1.00  0.00     0.028 A 
ATOM     14  C4  FTA A   1       4.759  14.980   8.500  1.00  0.00     0.031 A 
ATOM     15  C6  FTA A   1       3.609  15.443   9.153  1.00  0.00     0.031 A 
ATOM     16  C7  FTA A   1       3.196  14.928  10.379  1.00  0.00     0.032 A 
ATOM     17  C5  FTA A   1       3.942  13.909  10.944  1.00  0.00     0.031 A 
ATOM     18  C3  FTA A   1       5.093  13.445  10.319  1.00  0.00     0.031 A 
BRANCH  16  19
ATOM     19  N8  FTA A   1       2.164  15.518  11.153  1.00  0.00    -0.356 N 
ATOM     20  H1  FTA A   1       2.414  16.338  11.726  1.00  0.00     0.166 HD
BRANCH  19  21
ATOM     21  C24 FTA A   1       0.810  15.070  11.205  1.00  0.00     0.032 A 
ATOM     22  C26 FTA A   1       0.200  14.755  12.396  1.00  0.00     0.029 A 
ATOM     23  C28 FTA A   1      -1.050  14.165  12.365  1.00  0.00     0.002 A 
ATOM     24  C30 FTA A   1      -1.721  13.909  11.181  1.00  0.00     0.000 A 
ATOM     25  C29 FTA A   1      -1.140  14.253   9.990  1.00  0.00     0.002 A 
ATOM     26  C27 FTA A   1       0.127  14.848  10.018  1.00  0.00     0.029 A 
ENDBRANCH  19  21
ENDBRANCH  16  19
ENDBRANCH  11  13
ENDBRANCH   1  11
TORSDOF 5
ENDMDL
