MODEL 1
REMARK VINA RESULT:    -8.337      0.000      0.000
REMARK INTER + INTRA:         -11.246
REMARK INTER:                 -10.255
REMARK INTRA:                  -0.991
REMARK UNBOUND:                -0.960
REMARK  5 active torsions:
REMARK  status: ('A' for Active; 'I' for Inactive)
REMARK    1  A    between atoms: C_5  and  C_6 
REMARK    2  A    between atoms: C_6  and  O_7 
REMARK    3  A    between atoms: C_8  and  C_9 
REMARK    4  A    between atoms: C_16  and  N_17 
REMARK    5  A    between atoms: C_19  and  C_20 
REMARK       I    between atoms: C_20  and  N_22 
ROOT
HETATM    1  C   UNL     1       2.380   9.229  24.761  0.00  0.00    -0.024 A 
HETATM    2  C   UNL     1       2.964   8.749  23.567  0.00  0.00     0.028 A 
HETATM    3  C   UNL     1       2.686   8.488  25.907  0.00  0.00     0.014 A 
HETATM    4  C   UNL     1       3.408   7.290  25.847  0.00  0.00     0.033 A 
HETATM    5  C   UNL     1       3.958   6.825  24.670  0.00  0.00     0.073 A 
HETATM    6  C   UNL     1       3.805   7.592  23.520  0.00  0.00     0.028 A 
HETATM    7  N   UNL     1       4.617   5.664  24.710  0.00  0.00    -0.218 NA
HETATM    8  C   UNL     1       5.196   5.241  23.593  0.00  0.00     0.200 A 
HETATM    9  N   UNL     1       5.239   5.931  22.467  0.00  0.00    -0.212 NA
HETATM   10  C   UNL     1       4.524   7.085  22.429  0.00  0.00     0.140 A 
ENDROOT
BRANCH  10  11
HETATM   11  C   UNL     1       4.594   7.811  21.102  0.00  0.00     0.273 C 
HETATM   12  O   UNL     1       5.361   8.769  20.965  0.00  0.00    -0.266 OA
HETATM   13  N   UNL     1       3.784   7.358  20.069  0.00  0.00    -0.342 N 
HETATM   14  C   UNL     1       3.813   7.909  18.713  0.00  0.00     0.139 C 
HETATM   15  C   UNL     1       2.768   6.330  20.195  0.00  0.00     0.161 C 
HETATM   16  C   UNL     1       2.368   7.770  18.226  0.00  0.00     0.056 C 
HETATM   17  C   UNL     1       1.868   6.601  19.043  0.00  0.00    -0.056 C 
HETATM   18  C   UNL     1       2.082   7.562  16.762  0.00  0.00    -0.020 C 
HETATM   19  C   UNL     1       0.808   5.862  18.679  0.00  0.00    -0.018 C 
HETATM   20  C   UNL     1       0.116   6.117  17.370  0.00  0.00     0.054 C 
HETATM   21  C   UNL     1       1.015   6.830  16.379  0.00  0.00    -0.026 C 
ENDBRANCH  10  11
BRANCH   8  22
HETATM   22  N   UNL     1       5.790   3.999  23.608  0.00  0.00    -0.271 NA
HETATM   23  H   UNL     1       6.350   3.886  24.440  0.00  0.00     0.127 HD
HETATM   24  H   UNL     1       6.226   3.797  22.719  0.00  0.00     0.127 HD
ENDBRANCH   8  22
BRANCH   1  25
HETATM   25  C   UNL     1       1.536  10.468  24.788  0.00  0.00    -0.018 A 
HETATM   26  C   UNL     1       2.135  11.702  24.430  0.00  0.00     0.013 A 
HETATM   27  C   UNL     1       1.437  12.915  24.420  0.00  0.00     0.001 A 
HETATM   28  C   UNL     1       0.111  12.948  24.810  0.00  0.00     0.001 A 
HETATM   29  C   UNL     1      -0.518  11.766  25.178  0.00  0.00     0.010 A 
HETATM   30  C   UNL     1       0.158  10.521  25.141  0.00  0.00    -0.024 A 
BRANCH  30  31
HETATM   31  C   UNL     1      -0.696   9.327  25.504  0.00  0.00     0.203 C 
BRANCH  31  32
HETATM   32  O   UNL     1      -0.983   8.532  24.357  0.00  0.00    -0.396 OA
HETATM   33  H   UNL     1      -1.922   8.280  24.395  0.00  0.00     0.209 HD
ENDBRANCH  31  32
ENDBRANCH  30  31
ENDBRANCH   1  25
TORSDOF 5
ENDMDL
MODEL 2
REMARK VINA RESULT:    -8.284      2.610      6.538
REMARK INTER + INTRA:         -11.181
REMARK INTER:                 -10.010
REMARK INTRA:                  -1.171
REMARK UNBOUND:                -0.960
REMARK  5 active torsions:
REMARK  status: ('A' for Active; 'I' for Inactive)
REMARK    1  A    between atoms: C_5  and  C_6 
REMARK    2  A    between atoms: C_6  and  O_7 
REMARK    3  A    between atoms: C_8  and  C_9 
REMARK    4  A    between atoms: C_16  and  N_17 
REMARK    5  A    between atoms: C_19  and  C_20 
REMARK       I    between atoms: C_20  and  N_22 
ROOT
HETATM    1  C   UNL     1       3.895   7.140  23.040  0.00  0.00    -0.024 A 
HETATM    2  C   UNL     1       2.784   7.460  23.854  0.00  0.00     0.028 A 
HETATM    3  C   UNL     1       5.015   6.668  23.730  0.00  0.00     0.014 A 
HETATM    4  C   UNL     1       5.071   6.641  25.129  0.00  0.00     0.033 A 
HETATM    5  C   UNL     1       3.983   6.973  25.911  0.00  0.00     0.073 A 
HETATM    6  C   UNL     1       2.794   7.318  25.277  0.00  0.00     0.028 A 
HETATM    7  N   UNL     1       4.138   6.932  27.237  0.00  0.00    -0.218 NA
HETATM    8  C   UNL     1       3.079   7.196  27.992  0.00  0.00     0.200 A 
HETATM    9  N   UNL     1       1.862   7.410  27.524  0.00  0.00    -0.212 NA
HETATM   10  C   UNL     1       1.732   7.496  26.175  0.00  0.00     0.140 A 
ENDROOT
BRANCH  10  11
HETATM   11  C   UNL     1       0.318   7.770  25.707  0.00  0.00     0.273 C 
HETATM   12  O   UNL     1      -0.490   6.842  25.615  0.00  0.00    -0.266 OA
HETATM   13  N   UNL     1      -0.024   9.082  25.403  0.00  0.00    -0.342 N 
HETATM   14  C   UNL     1      -1.373   9.502  25.024  0.00  0.00     0.139 C 
HETATM   15  C   UNL     1       0.904  10.197  25.361  0.00  0.00     0.161 C 
HETATM   16  C   UNL     1      -1.140  10.660  24.050  0.00  0.00     0.056 C 
HETATM   17  C   UNL     1       0.206  11.184  24.495  0.00  0.00    -0.056 C 
HETATM   18  C   UNL     1      -2.145  11.779  23.955  0.00  0.00    -0.020 C 
HETATM   19  C   UNL     1       0.630  12.426  24.214  0.00  0.00    -0.018 C 
HETATM   20  C   UNL     1      -0.274  13.397  23.509  0.00  0.00     0.054 C 
HETATM   21  C   UNL     1      -1.736  13.031  23.664  0.00  0.00    -0.026 C 
ENDBRANCH  10  11
BRANCH   8  22
HETATM   22  N   UNL     1       3.260   7.250  29.356  0.00  0.00    -0.271 NA
HETATM   23  H   UNL     1       2.904   8.120  29.725  0.00  0.00     0.127 HD
HETATM   24  H   UNL     1       4.203   6.987  29.605  0.00  0.00     0.127 HD
ENDBRANCH   8  22
BRANCH   1  25
HETATM   25  C   UNL     1       3.843   7.259  21.546  0.00  0.00    -0.018 A 
HETATM   26  C   UNL     1       4.406   8.411  20.939  0.00  0.00     0.013 A 
HETATM   27  C   UNL     1       4.411   8.618  19.556  0.00  0.00     0.001 A 
HETATM   28  C   UNL     1       3.813   7.694  18.719  0.00  0.00     0.001 A 
HETATM   29  C   UNL     1       3.241   6.554  19.267  0.00  0.00     0.010 A 
HETATM   30  C   UNL     1       3.274   6.301  20.661  0.00  0.00    -0.024 A 
BRANCH  30  31
HETATM   31  C   UNL     1       2.669   4.979  21.079  0.00  0.00     0.203 C 
BRANCH  31  32
HETATM   32  O   UNL     1       1.306   5.136  21.461  0.00  0.00    -0.396 OA
HETATM   33  H   UNL     1       1.038   6.047  21.248  0.00  0.00     0.209 HD
ENDBRANCH  31  32
ENDBRANCH  30  31
ENDBRANCH   1  25
TORSDOF 5
ENDMDL
MODEL 3
REMARK VINA RESULT:    -8.178      1.989      3.138
REMARK INTER + INTRA:         -11.050
REMARK INTER:                 -10.191
REMARK INTRA:                  -0.858
REMARK UNBOUND:                -0.960
REMARK  5 active torsions:
REMARK  status: ('A' for Active; 'I' for Inactive)
REMARK    1  A    between atoms: C_5  and  C_6 
REMARK    2  A    between atoms: C_6  and  O_7 
REMARK    3  A    between atoms: C_8  and  C_9 
REMARK    4  A    between atoms: C_16  and  N_17 
REMARK    5  A    between atoms: C_19  and  C_20 
REMARK       I    between atoms: C_20  and  N_22 
ROOT
HETATM    1  C   UNL     1       0.475   9.584  25.224  0.00  0.00    -0.024 A 
HETATM    2  C   UNL     1       1.570   8.783  24.827  0.00  0.00     0.028 A 
HETATM    3  C   UNL     1      -0.399   8.980  26.133  0.00  0.00     0.014 A 
HETATM    4  C   UNL     1      -0.266   7.639  26.514  0.00  0.00     0.033 A 
HETATM    5  C   UNL     1       0.800   6.864  26.104  0.00  0.00     0.073 A 
HETATM    6  C   UNL     1       1.779   7.453  25.310  0.00  0.00     0.028 A 
HETATM    7  N   UNL     1       0.832   5.591  26.507  0.00  0.00    -0.218 NA
HETATM    8  C   UNL     1       1.884   4.859  26.163  0.00  0.00     0.200 A 
HETATM    9  N   UNL     1       2.941   5.325  25.522  0.00  0.00    -0.212 NA
HETATM   10  C   UNL     1       2.871   6.606  25.078  0.00  0.00     0.140 A 
ENDROOT
BRANCH  10  11
HETATM   11  C   UNL     1       4.104   7.068  24.330  0.00  0.00     0.273 C 
HETATM   12  O   UNL     1       5.000   7.668  24.931  0.00  0.00    -0.266 OA
HETATM   13  N   UNL     1       4.185   6.786  22.972  0.00  0.00    -0.342 N 
HETATM   14  C   UNL     1       5.353   7.096  22.146  0.00  0.00     0.139 C 
HETATM   15  C   UNL     1       3.119   6.206  22.176  0.00  0.00     0.161 C 
HETATM   16  C   UNL     1       4.761   7.405  20.768  0.00  0.00     0.056 C 
HETATM   17  C   UNL     1       3.474   6.611  20.790  0.00  0.00    -0.056 C 
HETATM   18  C   UNL     1       5.553   7.105  19.522  0.00  0.00    -0.020 C 
HETATM   19  C   UNL     1       2.829   6.246  19.671  0.00  0.00    -0.018 C 
HETATM   20  C   UNL     1       3.419   6.540  18.321  0.00  0.00     0.054 C 
HETATM   21  C   UNL     1       4.919   6.747  18.388  0.00  0.00    -0.026 C 
ENDBRANCH  10  11
BRANCH   8  22
HETATM   22  N   UNL     1       1.871   3.522  26.493  0.00  0.00    -0.271 NA
HETATM   23  H   UNL     1       1.406   2.986  25.776  0.00  0.00     0.127 HD
HETATM   24  H   UNL     1       1.569   3.389  27.448  0.00  0.00     0.127 HD
ENDBRANCH   8  22
BRANCH   1  25
HETATM   25  C   UNL     1       0.304  10.991  24.735  0.00  0.00    -0.018 A 
HETATM   26  C   UNL     1       1.413  11.872  24.807  0.00  0.00     0.013 A 
HETATM   27  C   UNL     1       1.360  13.202  24.376  0.00  0.00     0.001 A 
HETATM   28  C   UNL     1       0.174  13.721  23.888  0.00  0.00     0.001 A 
HETATM   29  C   UNL     1      -0.942  12.899  23.806  0.00  0.00     0.010 A 
HETATM   30  C   UNL     1      -0.892  11.535  24.187  0.00  0.00    -0.024 A 
BRANCH  30  31
HETATM   31  C   UNL     1      -2.177  10.768  23.964  0.00  0.00     0.203 C 
BRANCH  31  32
HETATM   32  O   UNL     1      -3.252  11.342  24.700  0.00  0.00    -0.396 OA
HETATM   33  H   UNL     1      -2.970  11.425  25.628  0.00  0.00     0.209 HD
ENDBRANCH  31  32
ENDBRANCH  30  31
ENDBRANCH   1  25
TORSDOF 5
ENDMDL
MODEL 4
REMARK VINA RESULT:    -8.138      2.494      6.655
REMARK INTER + INTRA:         -11.001
REMARK INTER:                  -9.862
REMARK INTRA:                  -1.139
REMARK UNBOUND:                -0.960
REMARK  5 active torsions:
REMARK  status: ('A' for Active; 'I' for Inactive)
REMARK    1  A    between atoms: C_5  and  C_6 
REMARK    2  A    between atoms: C_6  and  O_7 
REMARK    3  A    between atoms: C_8  and  C_9 
REMARK    4  A    between atoms: C_16  and  N_17 
REMARK    5  A    between atoms: C_19  and  C_20 
REMARK       I    between atoms: C_20  and  N_22 
ROOT
HETATM    1  C   UNL     1       3.765   6.979  23.179  0.00  0.00    -0.024 A 
HETATM    2  C   UNL     1       2.665   7.339  23.991  0.00  0.00     0.028 A 
HETATM    3  C   UNL     1       4.893   6.535  23.877  0.00  0.00     0.014 A 
HETATM    4  C   UNL     1       4.965   6.573  25.275  0.00  0.00     0.033 A 
HETATM    5  C   UNL     1       3.889   6.945  26.054  0.00  0.00     0.073 A 
HETATM    6  C   UNL     1       2.692   7.263  25.419  0.00  0.00     0.028 A 
HETATM    7  N   UNL     1       4.059   6.965  27.379  0.00  0.00    -0.218 NA
HETATM    8  C   UNL     1       3.010   7.266  28.133  0.00  0.00     0.200 A 
HETATM    9  N   UNL     1       1.788   7.462  27.670  0.00  0.00    -0.212 NA
HETATM   10  C   UNL     1       1.642   7.486  26.321  0.00  0.00     0.140 A 
ENDROOT
BRANCH  10  11
HETATM   11  C   UNL     1       0.224   7.743  25.857  0.00  0.00     0.273 C 
HETATM   12  O   UNL     1      -0.587   6.813  25.816  0.00  0.00    -0.266 OA
HETATM   13  N   UNL     1      -0.120   9.040  25.499  0.00  0.00    -0.342 N 
HETATM   14  C   UNL     1      -1.473   9.446  25.118  0.00  0.00     0.139 C 
HETATM   15  C   UNL     1       0.809  10.150  25.398  0.00  0.00     0.161 C 
HETATM   16  C   UNL     1      -1.250  10.560  24.091  0.00  0.00     0.056 C 
HETATM   17  C   UNL     1       0.103  11.100  24.497  0.00  0.00    -0.056 C 
HETATM   18  C   UNL     1      -2.254  11.676  23.959  0.00  0.00    -0.020 C 
HETATM   19  C   UNL     1       0.525  12.327  24.157  0.00  0.00    -0.018 C 
HETATM   20  C   UNL     1      -0.385  13.269  23.421  0.00  0.00     0.054 C 
HETATM   21  C   UNL     1      -1.846  12.913  23.609  0.00  0.00    -0.026 C 
ENDBRANCH  10  11
BRANCH   8  22
HETATM   22  N   UNL     1       3.209   7.384  29.490  0.00  0.00    -0.271 NA
HETATM   23  H   UNL     1       2.791   6.603  29.977  0.00  0.00     0.127 HD
HETATM   24  H   UNL     1       2.976   8.313  29.810  0.00  0.00     0.127 HD
ENDBRANCH   8  22
BRANCH   1  25
HETATM   25  C   UNL     1       3.695   7.028  21.682  0.00  0.00    -0.018 A 
HETATM   26  C   UNL     1       3.130   5.924  20.995  0.00  0.00     0.013 A 
HETATM   27  C   UNL     1       3.016   5.871  19.601  0.00  0.00     0.001 A 
HETATM   28  C   UNL     1       3.503   6.911  18.831  0.00  0.00     0.001 A 
HETATM   29  C   UNL     1       4.073   8.010  19.458  0.00  0.00     0.010 A 
HETATM   30  C   UNL     1       4.147   8.106  20.870  0.00  0.00    -0.024 A 
BRANCH  30  31
HETATM   31  C   UNL     1       4.732   9.402  21.387  0.00  0.00     0.203 C 
BRANCH  31  32
HETATM   32  O   UNL     1       3.772  10.134  22.142  0.00  0.00    -0.396 OA
HETATM   33  H   UNL     1       3.869  11.076  21.916  0.00  0.00     0.209 HD
ENDBRANCH  31  32
ENDBRANCH  30  31
ENDBRANCH   1  25
TORSDOF 5
ENDMDL
MODEL 5
REMARK VINA RESULT:    -7.891      2.148      3.073
REMARK INTER + INTRA:         -10.695
REMARK INTER:                  -9.842
REMARK INTRA:                  -0.853
REMARK UNBOUND:                -0.960
REMARK  5 active torsions:
REMARK  status: ('A' for Active; 'I' for Inactive)
REMARK    1  A    between atoms: C_5  and  C_6 
REMARK    2  A    between atoms: C_6  and  O_7 
REMARK    3  A    between atoms: C_8  and  C_9 
REMARK    4  A    between atoms: C_16  and  N_17 
REMARK    5  A    between atoms: C_19  and  C_20 
REMARK       I    between atoms: C_20  and  N_22 
ROOT
HETATM    1  C   UNL     1       0.567   9.735  25.483  0.00  0.00    -0.024 A 
HETATM    2  C   UNL     1       1.569   9.080  24.730  0.00  0.00     0.028 A 
HETATM    3  C   UNL     1       0.605   9.486  26.859  0.00  0.00     0.014 A 
HETATM    4  C   UNL     1       1.488   8.558  27.422  0.00  0.00     0.033 A 
HETATM    5  C   UNL     1       2.450   7.913  26.672  0.00  0.00     0.073 A 
HETATM    6  C   UNL     1       2.553   8.224  25.320  0.00  0.00     0.028 A 
HETATM    7  N   UNL     1       3.237   7.032  27.296  0.00  0.00    -0.218 NA
HETATM    8  C   UNL     1       4.200   6.452  26.590  0.00  0.00     0.200 A 
HETATM    9  N   UNL     1       4.490   6.751  25.336  0.00  0.00    -0.212 NA
HETATM   10  C   UNL     1       3.652   7.611  24.703  0.00  0.00     0.140 A 
ENDROOT
BRANCH  10  11
HETATM   11  C   UNL     1       4.025   7.888  23.262  0.00  0.00     0.273 C 
HETATM   12  O   UNL     1       4.539   8.969  22.956  0.00  0.00    -0.266 OA
HETATM   13  N   UNL     1       3.779   6.895  22.323  0.00  0.00    -0.342 N 
HETATM   14  C   UNL     1       4.167   6.993  20.915  0.00  0.00     0.139 C 
HETATM   15  C   UNL     1       3.062   5.661  22.584  0.00  0.00     0.161 C 
HETATM   16  C   UNL     1       3.075   6.216  20.175  0.00  0.00     0.056 C 
HETATM   17  C   UNL     1       2.606   5.243  21.232  0.00  0.00    -0.056 C 
HETATM   18  C   UNL     1       3.400   5.497  18.891  0.00  0.00    -0.020 C 
HETATM   19  C   UNL     1       1.959   4.105  20.933  0.00  0.00    -0.018 C 
HETATM   20  C   UNL     1       1.751   3.701  19.502  0.00  0.00     0.054 C 
HETATM   21  C   UNL     1       2.752   4.358  18.573  0.00  0.00    -0.026 C 
ENDBRANCH  10  11
BRANCH   8  22
HETATM   22  N   UNL     1       4.946   5.473  27.206  0.00  0.00    -0.271 NA
HETATM   23  H   UNL     1       4.511   4.570  27.087  0.00  0.00     0.127 HD
HETATM   24  H   UNL     1       5.202   5.750  28.143  0.00  0.00     0.127 HD
ENDBRANCH   8  22
BRANCH   1  25
HETATM   25  C   UNL     1      -0.426  10.660  24.845  0.00  0.00    -0.018 A 
HETATM   26  C   UNL     1      -1.779  10.246  24.761  0.00  0.00     0.013 A 
HETATM   27  C   UNL     1      -2.783  11.033  24.187  0.00  0.00     0.001 A 
HETATM   28  C   UNL     1      -2.464  12.260  23.634  0.00  0.00     0.001 A 
HETATM   29  C   UNL     1      -1.151  12.705  23.685  0.00  0.00     0.010 A 
HETATM   30  C   UNL     1      -0.131  11.946  24.311  0.00  0.00    -0.024 A 
BRANCH  30  31
HETATM   31  C   UNL     1       1.227  12.612  24.340  0.00  0.00     0.203 C 
BRANCH  31  32
HETATM   32  O   UNL     1       1.119  13.984  24.704  0.00  0.00    -0.396 OA
HETATM   33  H   UNL     1       0.321  14.086  25.252  0.00  0.00     0.209 HD
ENDBRANCH  31  32
ENDBRANCH  30  31
ENDBRANCH   1  25
TORSDOF 5
ENDMDL
MODEL 6
REMARK VINA RESULT:    -7.808      2.674      4.079
REMARK INTER + INTRA:         -10.593
REMARK INTER:                  -9.522
REMARK INTRA:                  -1.071
REMARK UNBOUND:                -0.960
REMARK  5 active torsions:
REMARK  status: ('A' for Active; 'I' for Inactive)
REMARK    1  A    between atoms: C_5  and  C_6 
REMARK    2  A    between atoms: C_6  and  O_7 
REMARK    3  A    between atoms: C_8  and  C_9 
REMARK    4  A    between atoms: C_16  and  N_17 
REMARK    5  A    between atoms: C_19  and  C_20 
REMARK       I    between atoms: C_20  and  N_22 
ROOT
HETATM    1  C   UNL     1       2.959   7.924  24.322  0.00  0.00    -0.024 A 
HETATM    2  C   UNL     1       3.387   6.929  23.414  0.00  0.00     0.028 A 
HETATM    3  C   UNL     1       3.196   9.240  23.911  0.00  0.00     0.014 A 
HETATM    4  C   UNL     1       3.919   9.537  22.750  0.00  0.00     0.033 A 
HETATM    5  C   UNL     1       4.347   8.553  21.881  0.00  0.00     0.073 A 
HETATM    6  C   UNL     1       4.018   7.232  22.166  0.00  0.00     0.028 A 
HETATM    7  N   UNL     1       5.044   8.934  20.807  0.00  0.00    -0.218 NA
HETATM    8  C   UNL     1       5.407   7.997  19.941  0.00  0.00     0.200 A 
HETATM    9  N   UNL     1       5.053   6.727  20.021  0.00  0.00    -0.212 NA
HETATM   10  C   UNL     1       4.386   6.348  21.142  0.00  0.00     0.140 A 
ENDROOT
BRANCH  10  11
HETATM   11  C   UNL     1       4.034   4.876  21.183  0.00  0.00     0.273 C 
HETATM   12  O   UNL     1       4.867   4.056  21.580  0.00  0.00    -0.266 OA
HETATM   13  N   UNL     1       2.761   4.499  20.774  0.00  0.00    -0.342 N 
HETATM   14  C   UNL     1       2.260   3.126  20.844  0.00  0.00     0.139 C 
HETATM   15  C   UNL     1       1.782   5.385  20.175  0.00  0.00     0.161 C 
HETATM   16  C   UNL     1       1.313   3.016  19.646  0.00  0.00     0.056 C 
HETATM   17  C   UNL     1       0.879   4.451  19.451  0.00  0.00    -0.056 C 
HETATM   18  C   UNL     1       0.118   2.100  19.709  0.00  0.00    -0.020 C 
HETATM   19  C   UNL     1      -0.243   4.787  18.795  0.00  0.00    -0.018 C 
HETATM   20  C   UNL     1      -1.180   3.724  18.296  0.00  0.00     0.054 C 
HETATM   21  C   UNL     1      -1.013   2.419  19.048  0.00  0.00    -0.026 C 
ENDBRANCH  10  11
BRANCH   8  22
HETATM   22  N   UNL     1       6.209   8.374  18.887  0.00  0.00    -0.271 NA
HETATM   23  H   UNL     1       6.027   9.334  18.631  0.00  0.00     0.127 HD
HETATM   24  H   UNL     1       6.188   7.682  18.152  0.00  0.00     0.127 HD
ENDBRANCH   8  22
BRANCH   1  25
HETATM   25  C   UNL     1       2.261   7.579  25.604  0.00  0.00    -0.018 A 
HETATM   26  C   UNL     1       3.047   7.184  26.716  0.00  0.00     0.013 A 
HETATM   27  C   UNL     1       2.497   6.844  27.956  0.00  0.00     0.001 A 
HETATM   28  C   UNL     1       1.124   6.847  28.124  0.00  0.00     0.001 A 
HETATM   29  C   UNL     1       0.312   7.219  27.062  0.00  0.00     0.010 A 
HETATM   30  C   UNL     1       0.855   7.620  25.815  0.00  0.00    -0.024 A 
BRANCH  30  31
HETATM   31  C   UNL     1      -0.169   8.062  24.792  0.00  0.00     0.203 C 
BRANCH  31  32
HETATM   32  O   UNL     1      -0.982   6.971  24.373  0.00  0.00    -0.396 OA
HETATM   33  H   UNL     1      -0.885   6.257  25.027  0.00  0.00     0.209 HD
ENDBRANCH  31  32
ENDBRANCH  30  31
ENDBRANCH   1  25
TORSDOF 5
ENDMDL
MODEL 7
REMARK VINA RESULT:    -7.771      1.526      2.039
REMARK INTER + INTRA:         -10.548
REMARK INTER:                  -9.555
REMARK INTRA:                  -0.992
REMARK UNBOUND:                -0.960
REMARK  5 active torsions:
REMARK  status: ('A' for Active; 'I' for Inactive)
REMARK    1  A    between atoms: C_5  and  C_6 
REMARK    2  A    between atoms: C_6  and  O_7 
REMARK    3  A    between atoms: C_8  and  C_9 
REMARK    4  A    between atoms: C_16  and  N_17 
REMARK    5  A    between atoms: C_19  and  C_20 
REMARK       I    between atoms: C_20  and  N_22 
ROOT
HETATM    1  C   UNL     1       3.230   7.389  24.194  0.00  0.00    -0.024 A 
HETATM    2  C   UNL     1       3.662   6.785  22.992  0.00  0.00     0.028 A 
HETATM    3  C   UNL     1       3.269   6.560  25.319  0.00  0.00     0.014 A 
HETATM    4  C   UNL     1       3.588   5.200  25.230  0.00  0.00     0.033 A 
HETATM    5  C   UNL     1       3.991   4.619  24.044  0.00  0.00     0.073 A 
HETATM    6  C   UNL     1       4.106   5.427  22.918  0.00  0.00     0.028 A 
HETATM    7  N   UNL     1       4.259   3.310  24.055  0.00  0.00    -0.218 NA
HETATM    8  C   UNL     1       4.702   2.760  22.932  0.00  0.00     0.200 A 
HETATM    9  N   UNL     1       4.979   3.433  21.829  0.00  0.00    -0.212 NA
HETATM   10  C   UNL     1       4.656   4.752  21.820  0.00  0.00     0.140 A 
ENDROOT
BRANCH  10  11
HETATM   11  C   UNL     1       4.974   5.456  20.517  0.00  0.00     0.273 C 
HETATM   12  O   UNL     1       6.095   5.939  20.337  0.00  0.00    -0.266 OA
HETATM   13  N   UNL     1       3.975   5.525  19.554  0.00  0.00    -0.342 N 
HETATM   14  C   UNL     1       4.171   6.098  18.221  0.00  0.00     0.139 C 
HETATM   15  C   UNL     1       2.602   5.100  19.745  0.00  0.00     0.161 C 
HETATM   16  C   UNL     1       2.808   6.704  17.875  0.00  0.00     0.056 C 
HETATM   17  C   UNL     1       1.865   5.855  18.698  0.00  0.00    -0.056 C 
HETATM   18  C   UNL     1       2.354   6.770  16.440  0.00  0.00    -0.020 C 
HETATM   19  C   UNL     1       0.558   5.742  18.415  0.00  0.00    -0.018 C 
HETATM   20  C   UNL     1      -0.016   6.397  17.190  0.00  0.00     0.054 C 
HETATM   21  C   UNL     1       1.043   6.668  16.140  0.00  0.00    -0.026 C 
ENDBRANCH  10  11
BRANCH   8  22
HETATM   22  N   UNL     1       4.884   1.396  22.914  0.00  0.00    -0.271 NA
HETATM   23  H   UNL     1       5.426   1.101  23.713  0.00  0.00     0.127 HD
HETATM   24  H   UNL     1       5.188   1.084  22.002  0.00  0.00     0.127 HD
ENDBRANCH   8  22
BRANCH   1  25
HETATM   25  C   UNL     1       2.809   8.828  24.251  0.00  0.00    -0.018 A 
HETATM   26  C   UNL     1       3.725   9.818  23.815  0.00  0.00     0.013 A 
HETATM   27  C   UNL     1       3.431  11.186  23.825  0.00  0.00     0.001 A 
HETATM   28  C   UNL     1       2.214  11.625  24.313  0.00  0.00     0.001 A 
HETATM   29  C   UNL     1       1.287  10.693  24.759  0.00  0.00     0.010 A 
HETATM   30  C   UNL     1       1.546   9.301  24.705  0.00  0.00    -0.024 A 
BRANCH  30  31
HETATM   31  C   UNL     1       0.400   8.426  25.164  0.00  0.00     0.203 C 
BRANCH  31  32
HETATM   32  O   UNL     1      -0.771   8.665  24.390  0.00  0.00    -0.396 OA
HETATM   33  H   UNL     1      -0.821   9.620  24.210  0.00  0.00     0.209 HD
ENDBRANCH  31  32
ENDBRANCH  30  31
ENDBRANCH   1  25
TORSDOF 5
ENDMDL
MODEL 8
REMARK VINA RESULT:    -7.709      2.646      4.164
REMARK INTER + INTRA:         -10.471
REMARK INTER:                  -9.883
REMARK INTRA:                  -0.589
REMARK UNBOUND:                -0.960
REMARK  5 active torsions:
REMARK  status: ('A' for Active; 'I' for Inactive)
REMARK    1  A    between atoms: C_5  and  C_6 
REMARK    2  A    between atoms: C_6  and  O_7 
REMARK    3  A    between atoms: C_8  and  C_9 
REMARK    4  A    between atoms: C_16  and  N_17 
REMARK    5  A    between atoms: C_19  and  C_20 
REMARK       I    between atoms: C_20  and  N_22 
ROOT
HETATM    1  C   UNL     1       2.970   7.205  23.670  0.00  0.00    -0.024 A 
HETATM    2  C   UNL     1       3.305   6.472  22.509  0.00  0.00     0.028 A 
HETATM    3  C   UNL     1       3.444   8.520  23.695  0.00  0.00     0.014 A 
HETATM    4  C   UNL     1       4.294   9.023  22.704  0.00  0.00     0.033 A 
HETATM    5  C   UNL     1       4.627   8.290  21.583  0.00  0.00     0.073 A 
HETATM    6  C   UNL     1       4.072   7.023  21.434  0.00  0.00     0.028 A 
HETATM    7  N   UNL     1       5.457   8.850  20.699  0.00  0.00    -0.218 NA
HETATM    8  C   UNL     1       5.735   8.171  19.594  0.00  0.00     0.200 A 
HETATM    9  N   UNL     1       5.178   7.018  19.266  0.00  0.00    -0.212 NA
HETATM   10  C   UNL     1       4.375   6.440  20.195  0.00  0.00     0.140 A 
ENDROOT
BRANCH  10  11
HETATM   11  C   UNL     1       3.792   5.110  19.767  0.00  0.00     0.273 C 
HETATM   12  O   UNL     1       4.259   4.060  20.219  0.00  0.00    -0.266 OA
HETATM   13  N   UNL     1       2.729   5.122  18.873  0.00  0.00    -0.342 N 
HETATM   14  C   UNL     1       2.017   3.918  18.443  0.00  0.00     0.139 C 
HETATM   15  C   UNL     1       2.217   6.302  18.203  0.00  0.00     0.161 C 
HETATM   16  C   UNL     1       1.597   4.230  17.004  0.00  0.00     0.056 C 
HETATM   17  C   UNL     1       1.518   5.740  17.017  0.00  0.00    -0.056 C 
HETATM   18  C   UNL     1       0.334   3.633  16.440  0.00  0.00    -0.020 C 
HETATM   19  C   UNL     1       0.806   6.436  16.117  0.00  0.00    -0.018 C 
HETATM   20  C   UNL     1      -0.032   5.724  15.093  0.00  0.00     0.054 C 
HETATM   21  C   UNL     1      -0.387   4.316  15.528  0.00  0.00    -0.026 C 
ENDBRANCH  10  11
BRANCH   8  22
HETATM   22  N   UNL     1       6.666   8.702  18.730  0.00  0.00    -0.271 NA
HETATM   23  H   UNL     1       6.364   8.590  17.773  0.00  0.00     0.127 HD
HETATM   24  H   UNL     1       7.597   8.391  18.967  0.00  0.00     0.127 HD
ENDBRANCH   8  22
BRANCH   1  25
HETATM   25  C   UNL     1       2.129   6.615  24.763  0.00  0.00    -0.018 A 
HETATM   26  C   UNL     1       2.540   5.390  25.347  0.00  0.00     0.013 A 
HETATM   27  C   UNL     1       1.829   4.758  26.373  0.00  0.00     0.001 A 
HETATM   28  C   UNL     1       0.647   5.310  26.832  0.00  0.00     0.001 A 
HETATM   29  C   UNL     1       0.199   6.505  26.286  0.00  0.00     0.010 A 
HETATM   30  C   UNL     1       0.935   7.187  25.285  0.00  0.00    -0.024 A 
BRANCH  30  31
HETATM   31  C   UNL     1       0.340   8.510  24.854  0.00  0.00     0.203 C 
BRANCH  31  32
HETATM   32  O   UNL     1      -0.994   8.345  24.384  0.00  0.00    -0.396 OA
HETATM   33  H   UNL     1      -1.493   9.149  24.613  0.00  0.00     0.209 HD
ENDBRANCH  31  32
ENDBRANCH  30  31
ENDBRANCH   1  25
TORSDOF 5
ENDMDL
MODEL 9
REMARK VINA RESULT:    -7.672      3.663      8.580
REMARK INTER + INTRA:         -10.425
REMARK INTER:                  -9.466
REMARK INTRA:                  -0.960
REMARK UNBOUND:                -0.960
REMARK  5 active torsions:
REMARK  status: ('A' for Active; 'I' for Inactive)
REMARK    1  A    between atoms: C_5  and  C_6 
REMARK    2  A    between atoms: C_6  and  O_7 
REMARK    3  A    between atoms: C_8  and  C_9 
REMARK    4  A    between atoms: C_16  and  N_17 
REMARK    5  A    between atoms: C_19  and  C_20 
REMARK       I    between atoms: C_20  and  N_22 
ROOT
HETATM    1  C   UNL     1       3.808   8.876  23.722  0.00  0.00    -0.024 A 
HETATM    2  C   UNL     1       2.532   8.852  24.329  0.00  0.00     0.028 A 
HETATM    3  C   UNL     1       4.305  10.153  23.444  0.00  0.00     0.014 A 
HETATM    4  C   UNL     1       3.537  11.308  23.634  0.00  0.00     0.033 A 
HETATM    5  C   UNL     1       2.284  11.267  24.212  0.00  0.00     0.073 A 
HETATM    6  C   UNL     1       1.793  10.038  24.639  0.00  0.00     0.028 A 
HETATM    7  N   UNL     1       1.621  12.420  24.338  0.00  0.00    -0.218 NA
HETATM    8  C   UNL     1       0.441  12.393  24.944  0.00  0.00     0.200 A 
HETATM    9  N   UNL     1      -0.084  11.320  25.510  0.00  0.00    -0.212 NA
HETATM   10  C   UNL     1       0.580  10.149  25.331  0.00  0.00     0.140 A 
ENDROOT
BRANCH  10  11
HETATM   11  C   UNL     1      -0.090   8.956  25.981  0.00  0.00     0.273 C 
HETATM   12  O   UNL     1      -1.073   8.435  25.445  0.00  0.00    -0.266 OA
HETATM   13  N   UNL     1       0.444   8.478  27.171  0.00  0.00    -0.342 N 
HETATM   14  C   UNL     1      -0.047   7.283  27.859  0.00  0.00     0.139 C 
HETATM   15  C   UNL     1       1.509   9.115  27.922  0.00  0.00     0.161 C 
HETATM   16  C   UNL     1       0.176   7.593  29.342  0.00  0.00     0.056 C 
HETATM   17  C   UNL     1       1.329   8.569  29.293  0.00  0.00    -0.056 C 
HETATM   18  C   UNL     1       0.462   6.475  30.311  0.00  0.00    -0.020 C 
HETATM   19  C   UNL     1       2.129   8.800  30.346  0.00  0.00    -0.018 C 
HETATM   20  C   UNL     1       1.963   8.013  31.615  0.00  0.00     0.054 C 
HETATM   21  C   UNL     1       1.256   6.693  31.379  0.00  0.00    -0.026 C 
ENDBRANCH  10  11
BRANCH   8  22
HETATM   22  N   UNL     1      -0.286  13.561  24.986  0.00  0.00    -0.271 NA
HETATM   23  H   UNL     1       0.331  14.361  24.984  0.00  0.00     0.127 HD
HETATM   24  H   UNL     1      -0.995  13.519  25.704  0.00  0.00     0.127 HD
ENDBRANCH   8  22
BRANCH   1  25
HETATM   25  C   UNL     1       4.579   7.619  23.447  0.00  0.00    -0.018 A 
HETATM   26  C   UNL     1       4.977   6.816  24.546  0.00  0.00     0.013 A 
HETATM   27  C   UNL     1       5.696   5.625  24.399  0.00  0.00     0.001 A 
HETATM   28  C   UNL     1       6.084   5.207  23.139  0.00  0.00     0.001 A 
HETATM   29  C   UNL     1       5.725   5.964  22.033  0.00  0.00     0.010 A 
HETATM   30  C   UNL     1       4.949   7.144  22.158  0.00  0.00    -0.024 A 
BRANCH  30  31
HETATM   31  C   UNL     1       4.587   7.805  20.847  0.00  0.00     0.203 C 
BRANCH  31  32
HETATM   32  O   UNL     1       3.201   7.652  20.559  0.00  0.00    -0.396 OA
HETATM   33  H   UNL     1       2.908   6.807  20.942  0.00  0.00     0.209 HD
ENDBRANCH  31  32
ENDBRANCH  30  31
ENDBRANCH   1  25
TORSDOF 5
ENDMDL
