MODEL 1
REMARK VINA RESULT:   -11.275      0.000      0.000
REMARK INTER + INTRA:         -14.560
REMARK INTER:                 -12.836
REMARK INTRA:                  -1.725
REMARK UNBOUND:                -0.649
REMARK  5 active torsions:
REMARK  status: ('A' for Active; 'I' for Inactive)
REMARK    1  A    between atoms: C_2  and  C_4 
REMARK    2  A    between atoms: C_6  and  C_12 
REMARK    3  A    between atoms: C_7  and  O_8 
REMARK    4  A    between atoms: C_10  and  O_11 
REMARK    5  A    between atoms: N_17  and  C_18 
ROOT
HETATM    1  C   UNL     1      -0.708  10.278  26.450  0.00  0.00     0.171 A 
HETATM    2  N   UNL     1      -1.538  10.550  27.428  0.00  0.00    -0.151 NA
HETATM    3  N   UNL     1      -1.304   9.569  28.349  0.00  0.00    -0.226 N 
HETATM    4  C   UNL     1      -0.345   8.670  27.887  0.00  0.00     0.349 A 
HETATM    5  O   UNL     1      -0.007   7.648  28.461  0.00  0.00    -0.245 OA
HETATM    6  N   UNL     1       0.076   9.176  26.677  0.00  0.00    -0.244 N 
HETATM    7  H   UNL     1      -1.820   9.476  29.212  0.00  0.00     0.194 HD
ENDROOT
BRANCH   1   8
HETATM    8  C   UNL     1      -0.645  11.116  25.235  0.00  0.00     0.046 A 
HETATM    9  C   UNL     1       0.539  11.761  24.872  0.00  0.00     0.028 A 
HETATM   10  C   UNL     1       0.662  12.468  23.663  0.00  0.00    -0.021 A 
HETATM   11  C   UNL     1      -0.464  12.537  22.833  0.00  0.00     0.075 A 
HETATM   12  C   UNL     1      -1.686  11.997  23.227  0.00  0.00     0.074 A 
HETATM   13  C   UNL     1      -1.778  11.303  24.434  0.00  0.00     0.082 A 
BRANCH  10  14
HETATM   14  C   UNL     1       1.989  13.110  23.305  0.00  0.00     0.013 C 
HETATM   15  C   UNL     1       2.270  14.328  24.196  0.00  0.00     0.015 C 
HETATM   16  C   UNL     1       3.137  12.097  23.408  0.00  0.00     0.015 C 
ENDBRANCH  10  14
BRANCH  11  17
HETATM   17  O   UNL     1      -0.354  13.153  21.618  0.00  0.00    -0.360 OA
HETATM   18  H   UNL     1      -0.053  12.497  20.967  0.00  0.00     0.217 HD
ENDBRANCH  11  17
BRANCH  13  19
HETATM   19  O   UNL     1      -3.022  10.837  24.771  0.00  0.00    -0.360 OA
HETATM   20  H   UNL     1      -3.108  10.882  25.748  0.00  0.00     0.217 HD
ENDBRANCH  13  19
ENDBRANCH   1   8
BRANCH   6  21
HETATM   21  C   UNL     1       0.890   8.430  25.809  0.00  0.00     0.046 A 
HETATM   22  C   UNL     1       2.276   8.633  25.768  0.00  0.00     0.044 A 
HETATM   23  C   UNL     1       3.030   8.008  24.749  0.00  0.00    -0.006 A 
HETATM   24  C   UNL     1       4.391   8.089  24.340  0.00  0.00     0.031 A 
HETATM   25  C   UNL     1       2.391   7.134  23.863  0.00  0.00     0.044 A 
HETATM   26  C   UNL     1       4.551   7.283  23.235  0.00  0.00     0.091 A 
HETATM   27  N   UNL     1       3.355   6.659  22.997  0.00  0.00    -0.360 N 
HETATM   28  C   UNL     1       3.137   5.672  21.960  0.00  0.00     0.155 C 
HETATM   29  C   UNL     1       1.015   6.877  23.935  0.00  0.00     0.033 A 
HETATM   30  C   UNL     1       0.273   7.575  24.891  0.00  0.00     0.032 A 
ENDBRANCH   6  21
TORSDOF 5
ENDMDL
MODEL 2
REMARK VINA RESULT:   -10.955      0.564      0.566
REMARK INTER + INTRA:         -14.166
REMARK INTER:                 -12.535
REMARK INTRA:                  -1.631
REMARK UNBOUND:                -0.649
REMARK  5 active torsions:
REMARK  status: ('A' for Active; 'I' for Inactive)
REMARK    1  A    between atoms: C_2  and  C_4 
REMARK    2  A    between atoms: C_6  and  C_12 
REMARK    3  A    between atoms: C_7  and  O_8 
REMARK    4  A    between atoms: C_10  and  O_11 
REMARK    5  A    between atoms: N_17  and  C_18 
ROOT
HETATM    1  C   UNL     1      -0.526  10.212  26.588  0.00  0.00     0.171 A 
HETATM    2  N   UNL     1      -1.392  10.320  27.567  0.00  0.00    -0.151 NA
HETATM    3  N   UNL     1      -1.033   9.334  28.442  0.00  0.00    -0.226 N 
HETATM    4  C   UNL     1       0.043   8.598  27.949  0.00  0.00     0.349 A 
HETATM    5  O   UNL     1       0.512   7.603  28.477  0.00  0.00    -0.245 OA
HETATM    6  N   UNL     1       0.398   9.216  26.771  0.00  0.00    -0.244 N 
HETATM    7  H   UNL     1      -1.538   9.129  29.292  0.00  0.00     0.194 HD
ENDROOT
BRANCH   1   8
HETATM    8  C   UNL     1      -0.570  11.112  25.416  0.00  0.00     0.046 A 
HETATM    9  C   UNL     1       0.594  11.712  24.933  0.00  0.00     0.028 A 
HETATM   10  C   UNL     1       0.603  12.477  23.753  0.00  0.00    -0.021 A 
HETATM   11  C   UNL     1      -0.614  12.651  23.082  0.00  0.00     0.075 A 
HETATM   12  C   UNL     1      -1.806  12.155  23.606  0.00  0.00     0.074 A 
HETATM   13  C   UNL     1      -1.783  11.402  24.780  0.00  0.00     0.082 A 
BRANCH  10  14
HETATM   14  C   UNL     1       1.909  13.066  23.254  0.00  0.00     0.013 C 
HETATM   15  C   UNL     1       2.265  14.345  24.026  0.00  0.00     0.015 C 
HETATM   16  C   UNL     1       3.049  12.045  23.358  0.00  0.00     0.015 C 
ENDBRANCH  10  14
BRANCH  11  17
HETATM   17  O   UNL     1      -0.624  13.325  21.893  0.00  0.00    -0.360 OA
HETATM   18  H   UNL     1       0.218  13.158  21.438  0.00  0.00     0.217 HD
ENDBRANCH  11  17
BRANCH  13  19
HETATM   19  O   UNL     1      -3.000  10.985  25.255  0.00  0.00    -0.360 OA
HETATM   20  H   UNL     1      -2.956  10.980  26.236  0.00  0.00     0.217 HD
ENDBRANCH  13  19
ENDBRANCH   1   8
BRANCH   6  21
HETATM   21  C   UNL     1       1.312   8.632  25.879  0.00  0.00     0.046 A 
HETATM   22  C   UNL     1       2.683   8.904  25.969  0.00  0.00     0.044 A 
HETATM   23  C   UNL     1       3.541   8.456  24.939  0.00  0.00    -0.006 A 
HETATM   24  C   UNL     1       4.920   8.656  24.648  0.00  0.00     0.031 A 
HETATM   25  C   UNL     1       3.015   7.679  23.901  0.00  0.00     0.044 A 
HETATM   26  C   UNL     1       5.201   8.013  23.464  0.00  0.00     0.091 A 
HETATM   27  N   UNL     1       4.063   7.370  23.057  0.00  0.00    -0.360 N 
HETATM   28  C   UNL     1       3.973   6.520  21.888  0.00  0.00     0.155 C 
HETATM   29  C   UNL     1       1.655   7.350  23.834  0.00  0.00     0.033 A 
HETATM   30  C   UNL     1       0.809   7.878  24.813  0.00  0.00     0.032 A 
ENDBRANCH   6  21
TORSDOF 5
ENDMDL
MODEL 3
REMARK VINA RESULT:    -8.863      2.301      5.470
REMARK INTER + INTRA:         -11.585
REMARK INTER:                 -10.510
REMARK INTRA:                  -1.075
REMARK UNBOUND:                -0.649
REMARK  5 active torsions:
REMARK  status: ('A' for Active; 'I' for Inactive)
REMARK    1  A    between atoms: C_2  and  C_4 
REMARK    2  A    between atoms: C_6  and  C_12 
REMARK    3  A    between atoms: C_7  and  O_8 
REMARK    4  A    between atoms: C_10  and  O_11 
REMARK    5  A    between atoms: N_17  and  C_18 
ROOT
HETATM    1  C   UNL     1       0.533   8.360  26.739  0.00  0.00     0.171 A 
HETATM    2  N   UNL     1       0.565   8.024  28.007  0.00  0.00    -0.151 NA
HETATM    3  N   UNL     1      -0.280   8.912  28.610  0.00  0.00    -0.226 N 
HETATM    4  C   UNL     1      -0.790   9.822  27.685  0.00  0.00     0.349 A 
HETATM    5  O   UNL     1      -1.496  10.779  27.959  0.00  0.00    -0.245 OA
HETATM    6  N   UNL     1      -0.299   9.415  26.465  0.00  0.00    -0.244 N 
HETATM    7  H   UNL     1      -0.443   8.942  29.606  0.00  0.00     0.194 HD
ENDROOT
BRANCH   1   8
HETATM    8  C   UNL     1       1.327   7.632  25.728  0.00  0.00     0.046 A 
HETATM    9  C   UNL     1       2.710   7.805  25.646  0.00  0.00     0.028 A 
HETATM   10  C   UNL     1       3.505   7.041  24.774  0.00  0.00    -0.021 A 
HETATM   11  C   UNL     1       2.859   6.109  23.953  0.00  0.00     0.075 A 
HETATM   12  C   UNL     1       1.471   5.999  23.938  0.00  0.00     0.074 A 
HETATM   13  C   UNL     1       0.707   6.773  24.812  0.00  0.00     0.082 A 
BRANCH  10  14
HETATM   14  C   UNL     1       5.009   7.244  24.764  0.00  0.00     0.013 C 
HETATM   15  C   UNL     1       5.363   8.738  24.783  0.00  0.00     0.015 C 
HETATM   16  C   UNL     1       5.670   6.523  25.946  0.00  0.00     0.015 C 
ENDBRANCH  10  14
BRANCH  11  17
HETATM   17  O   UNL     1       3.613   5.299  23.150  0.00  0.00    -0.360 OA
HETATM   18  H   UNL     1       4.082   4.660  23.711  0.00  0.00     0.217 HD
ENDBRANCH  11  17
BRANCH  13  19
HETATM   19  O   UNL     1      -0.653   6.639  24.709  0.00  0.00    -0.360 OA
HETATM   20  H   UNL     1      -0.896   6.739  23.763  0.00  0.00     0.217 HD
ENDBRANCH  13  19
ENDBRANCH   1   8
BRANCH   6  21
HETATM   21  C   UNL     1      -0.426  10.213  25.317  0.00  0.00     0.046 A 
HETATM   22  C   UNL     1       0.685  10.863  24.764  0.00  0.00     0.044 A 
HETATM   23  C   UNL     1       0.483  11.808  23.732  0.00  0.00    -0.006 A 
HETATM   24  C   UNL     1       1.338  12.719  23.049  0.00  0.00     0.031 A 
HETATM   25  C   UNL     1      -0.807  12.005  23.228  0.00  0.00     0.044 A 
HETATM   26  C   UNL     1       0.568  13.441  22.164  0.00  0.00     0.091 A 
HETATM   27  N   UNL     1      -0.711  12.955  22.231  0.00  0.00    -0.360 N 
HETATM   28  C   UNL     1      -1.804  13.406  21.396  0.00  0.00     0.155 C 
HETATM   29  C   UNL     1      -1.916  11.314  23.733  0.00  0.00     0.033 A 
HETATM   30  C   UNL     1      -1.709  10.452  24.813  0.00  0.00     0.032 A 
ENDBRANCH   6  21
TORSDOF 5
ENDMDL
MODEL 4
REMARK VINA RESULT:    -8.827      2.325      5.531
REMARK INTER + INTRA:         -11.541
REMARK INTER:                 -10.447
REMARK INTRA:                  -1.094
REMARK UNBOUND:                -0.649
REMARK  5 active torsions:
REMARK  status: ('A' for Active; 'I' for Inactive)
REMARK    1  A    between atoms: C_2  and  C_4 
REMARK    2  A    between atoms: C_6  and  C_12 
REMARK    3  A    between atoms: C_7  and  O_8 
REMARK    4  A    between atoms: C_10  and  O_11 
REMARK    5  A    between atoms: N_17  and  C_18 
ROOT
HETATM    1  C   UNL     1       0.413   8.379  26.722  0.00  0.00     0.171 A 
HETATM    2  N   UNL     1       0.332   7.865  27.926  0.00  0.00    -0.151 NA
HETATM    3  N   UNL     1      -0.483   8.726  28.604  0.00  0.00    -0.226 N 
HETATM    4  C   UNL     1      -0.856   9.799  27.796  0.00  0.00     0.349 A 
HETATM    5  O   UNL     1      -1.505  10.764  28.167  0.00  0.00    -0.245 OA
HETATM    6  N   UNL     1      -0.315   9.530  26.559  0.00  0.00    -0.244 N 
HETATM    7  H   UNL     1      -0.712   8.627  29.582  0.00  0.00     0.194 HD
ENDROOT
BRANCH   1   8
HETATM    8  C   UNL     1       1.218   7.738  25.662  0.00  0.00     0.046 A 
HETATM    9  C   UNL     1       2.604   7.901  25.619  0.00  0.00     0.028 A 
HETATM   10  C   UNL     1       3.407   7.211  24.695  0.00  0.00    -0.021 A 
HETATM   11  C   UNL     1       2.766   6.366  23.780  0.00  0.00     0.075 A 
HETATM   12  C   UNL     1       1.377   6.274  23.732  0.00  0.00     0.074 A 
HETATM   13  C   UNL     1       0.606   6.974  24.661  0.00  0.00     0.082 A 
BRANCH  10  14
HETATM   14  C   UNL     1       4.913   7.396  24.728  0.00  0.00     0.013 C 
HETATM   15  C   UNL     1       5.284   8.886  24.743  0.00  0.00     0.015 C 
HETATM   16  C   UNL     1       5.529   6.680  25.937  0.00  0.00     0.015 C 
ENDBRANCH  10  14
BRANCH  11  17
HETATM   17  O   UNL     1       3.526   5.624  22.919  0.00  0.00    -0.360 OA
HETATM   18  H   UNL     1       3.134   4.738  22.848  0.00  0.00     0.217 HD
ENDBRANCH  11  17
BRANCH  13  19
HETATM   19  O   UNL     1      -0.753   6.866  24.522  0.00  0.00    -0.360 OA
HETATM   20  H   UNL     1      -1.159   7.000  25.406  0.00  0.00     0.217 HD
ENDBRANCH  13  19
ENDBRANCH   1   8
BRANCH   6  21
HETATM   21  C   UNL     1      -0.300  10.491  25.536  0.00  0.00     0.046 A 
HETATM   22  C   UNL     1      -1.479  10.852  24.869  0.00  0.00     0.044 A 
HETATM   23  C   UNL     1      -1.394  11.671  23.721  0.00  0.00    -0.006 A 
HETATM   24  C   UNL     1      -2.340  12.115  22.755  0.00  0.00     0.031 A 
HETATM   25  C   UNL     1      -0.148  12.173  23.330  0.00  0.00     0.044 A 
HETATM   26  C   UNL     1      -1.667  12.860  21.812  0.00  0.00     0.091 A 
HETATM   27  N   UNL     1      -0.358  12.946  22.205  0.00  0.00    -0.360 N 
HETATM   28  C   UNL     1       0.658  13.711  21.513  0.00  0.00     0.155 C 
HETATM   29  C   UNL     1       1.029  11.867  24.026  0.00  0.00     0.033 A 
HETATM   30  C   UNL     1       0.935  10.983  25.104  0.00  0.00     0.032 A 
ENDBRANCH   6  21
TORSDOF 5
ENDMDL
MODEL 5
REMARK VINA RESULT:    -8.538      2.364      3.701
REMARK INTER + INTRA:         -11.184
REMARK INTER:                  -9.628
REMARK INTRA:                  -1.556
REMARK UNBOUND:                -0.649
REMARK  5 active torsions:
REMARK  status: ('A' for Active; 'I' for Inactive)
REMARK    1  A    between atoms: C_2  and  C_4 
REMARK    2  A    between atoms: C_6  and  C_12 
REMARK    3  A    between atoms: C_7  and  O_8 
REMARK    4  A    between atoms: C_10  and  O_11 
REMARK    5  A    between atoms: N_17  and  C_18 
ROOT
HETATM    1  C   UNL     1       2.750   7.809  26.426  0.00  0.00     0.171 A 
HETATM    2  N   UNL     1       2.778   7.493  27.698  0.00  0.00    -0.151 NA
HETATM    3  N   UNL     1       3.850   6.653  27.811  0.00  0.00    -0.226 N 
HETATM    4  C   UNL     1       4.442   6.432  26.570  0.00  0.00     0.349 A 
HETATM    5  O   UNL     1       5.360   5.654  26.359  0.00  0.00    -0.245 OA
HETATM    6  N   UNL     1       3.754   7.235  25.689  0.00  0.00    -0.244 N 
HETATM    7  H   UNL     1       4.117   6.199  28.673  0.00  0.00     0.194 HD
ENDROOT
BRANCH   1   8
HETATM    8  C   UNL     1       1.720   8.716  25.878  0.00  0.00     0.046 A 
HETATM    9  C   UNL     1       2.082   9.885  25.206  0.00  0.00     0.028 A 
HETATM   10  C   UNL     1       1.131  10.705  24.575  0.00  0.00    -0.021 A 
HETATM   11  C   UNL     1      -0.215  10.331  24.667  0.00  0.00     0.075 A 
HETATM   12  C   UNL     1      -0.608   9.231  25.426  0.00  0.00     0.074 A 
HETATM   13  C   UNL     1       0.358   8.437  26.044  0.00  0.00     0.082 A 
BRANCH  10  14
HETATM   14  C   UNL     1       1.592  11.939  23.821  0.00  0.00     0.013 C 
HETATM   15  C   UNL     1       1.521  13.187  24.713  0.00  0.00     0.015 C 
HETATM   16  C   UNL     1       3.014  11.753  23.276  0.00  0.00     0.015 C 
ENDBRANCH  10  14
BRANCH  11  17
HETATM   17  O   UNL     1      -1.154  11.066  24.000  0.00  0.00    -0.360 OA
HETATM   18  H   UNL     1      -1.483  10.540  23.252  0.00  0.00     0.217 HD
ENDBRANCH  11  17
BRANCH  13  19
HETATM   19  O   UNL     1      -0.109   7.399  26.807  0.00  0.00    -0.360 OA
HETATM   20  H   UNL     1       0.645   6.798  26.995  0.00  0.00     0.217 HD
ENDBRANCH  13  19
ENDBRANCH   1   8
BRANCH   6  21
HETATM   21  C   UNL     1       3.928   7.125  24.300  0.00  0.00     0.046 A 
HETATM   22  C   UNL     1       4.493   8.171  23.558  0.00  0.00     0.044 A 
HETATM   23  C   UNL     1       4.471   8.101  22.147  0.00  0.00    -0.006 A 
HETATM   24  C   UNL     1       4.827   9.009  21.110  0.00  0.00     0.031 A 
HETATM   25  C   UNL     1       3.967   6.952  21.527  0.00  0.00     0.044 A 
HETATM   26  C   UNL     1       4.535   8.410  19.904  0.00  0.00     0.091 A 
HETATM   27  N   UNL     1       4.082   7.145  20.165  0.00  0.00    -0.360 N 
HETATM   28  C   UNL     1       3.740   6.170  19.150  0.00  0.00     0.155 C 
HETATM   29  C   UNL     1       3.455   5.874  22.261  0.00  0.00     0.033 A 
HETATM   30  C   UNL     1       3.403   6.002  23.652  0.00  0.00     0.032 A 
ENDBRANCH   6  21
TORSDOF 5
ENDMDL
MODEL 6
REMARK VINA RESULT:    -8.366      2.327      4.070
REMARK INTER + INTRA:         -10.971
REMARK INTER:                  -9.711
REMARK INTRA:                  -1.260
REMARK UNBOUND:                -0.649
REMARK  5 active torsions:
REMARK  status: ('A' for Active; 'I' for Inactive)
REMARK    1  A    between atoms: C_2  and  C_4 
REMARK    2  A    between atoms: C_6  and  C_12 
REMARK    3  A    between atoms: C_7  and  O_8 
REMARK    4  A    between atoms: C_10  and  O_11 
REMARK    5  A    between atoms: N_17  and  C_18 
ROOT
HETATM    1  C   UNL     1       2.840   7.748  25.934  0.00  0.00     0.171 A 
HETATM    2  N   UNL     1       3.095   7.539  27.203  0.00  0.00    -0.151 NA
HETATM    3  N   UNL     1       4.129   6.645  27.194  0.00  0.00    -0.226 N 
HETATM    4  C   UNL     1       4.462   6.283  25.890  0.00  0.00     0.349 A 
HETATM    5  O   UNL     1       5.286   5.434  25.587  0.00  0.00    -0.245 OA
HETATM    6  N   UNL     1       3.656   7.052  25.081  0.00  0.00    -0.244 N 
HETATM    7  H   UNL     1       4.534   6.250  28.030  0.00  0.00     0.194 HD
ENDROOT
BRANCH   1   8
HETATM    8  C   UNL     1       1.767   8.670  25.504  0.00  0.00     0.046 A 
HETATM    9  C   UNL     1       2.073   9.884  24.887  0.00  0.00     0.028 A 
HETATM   10  C   UNL     1       1.076  10.725  24.364  0.00  0.00    -0.021 A 
HETATM   11  C   UNL     1      -0.257  10.322  24.509  0.00  0.00     0.075 A 
HETATM   12  C   UNL     1      -0.591   9.170  25.218  0.00  0.00     0.074 A 
HETATM   13  C   UNL     1       0.421   8.357  25.729  0.00  0.00     0.082 A 
BRANCH  10  14
HETATM   14  C   UNL     1       1.475  12.011  23.664  0.00  0.00     0.013 C 
HETATM   15  C   UNL     1       1.190  13.231  24.552  0.00  0.00     0.015 C 
HETATM   16  C   UNL     1       2.954  11.981  23.257  0.00  0.00     0.015 C 
ENDBRANCH  10  14
BRANCH  11  17
HETATM   17  O   UNL     1      -1.244  11.081  23.944  0.00  0.00    -0.360 OA
HETATM   18  H   UNL     1      -1.162  11.021  22.978  0.00  0.00     0.217 HD
ENDBRANCH  11  17
BRANCH  13  19
HETATM   19  O   UNL     1       0.013   7.265  26.451  0.00  0.00    -0.360 OA
HETATM   20  H   UNL     1       0.611   7.173  27.225  0.00  0.00     0.217 HD
ENDBRANCH  13  19
ENDBRANCH   1   8
BRANCH   6  21
HETATM   21  C   UNL     1       3.557   6.814  23.700  0.00  0.00     0.046 A 
HETATM   22  C   UNL     1       3.121   5.575  23.212  0.00  0.00     0.044 A 
HETATM   23  C   UNL     1       3.222   5.310  21.827  0.00  0.00    -0.006 A 
HETATM   24  C   UNL     1       3.002   4.154  21.026  0.00  0.00     0.031 A 
HETATM   25  C   UNL     1       3.670   6.320  20.968  0.00  0.00     0.044 A 
HETATM   26  C   UNL     1       3.316   4.474  19.724  0.00  0.00     0.091 A 
HETATM   27  N   UNL     1       3.652   5.801  19.689  0.00  0.00    -0.360 N 
HETATM   28  C   UNL     1       3.975   6.534  18.483  0.00  0.00     0.155 C 
HETATM   29  C   UNL     1       4.050   7.584  21.441  0.00  0.00     0.033 A 
HETATM   30  C   UNL     1       4.029   7.794  22.822  0.00  0.00     0.032 A 
ENDBRANCH   6  21
TORSDOF 5
ENDMDL
