MODEL 1
REMARK VINA RESULT:    -7.028      0.000      0.000
REMARK INTER + INTRA:         -10.940
REMARK INTER:                  -9.915
REMARK INTRA:                  -1.025
REMARK UNBOUND:                -1.446
REMARK  7 active torsions:
REMARK  status: ('A' for Active; 'I' for Inactive)
REMARK    1  A    between atoms: O_2  and  C_3 
REMARK    2  A    between atoms: C_6  and  C_9 
REMARK    3  A    between atoms: C_10  and  C_11 
REMARK       I    between atoms: C_11  and  N_13 
REMARK    4  A    between atoms: N_13  and  C_14 
REMARK    5  A    between atoms: C_19  and  C_20 
REMARK    6  A    between atoms: C_24  and  O_25 
REMARK    7  A    between atoms: C_27  and  O_28 
ROOT
HETATM    1  C   UNL     1       7.911  13.133  21.664  0.00  0.00     0.039 C 
HETATM    2  C   UNL     1       9.079  13.518  21.001  0.00  0.00     0.131 C 
HETATM    3  N   UNL     1       9.312  12.515  20.105  0.00  0.00    -0.271 N 
HETATM    4  H   UNL     1      10.122  12.403  19.505  0.00  0.00     0.189 HD
HETATM    5  N   UNL     1       8.354  11.594  20.023  0.00  0.00    -0.173 NA
HETATM    6  C   UNL     1       7.512  11.890  21.025  0.00  0.00     0.103 C 
ENDROOT
BRANCH   6   7
HETATM    7  C   UNL     1       6.361  11.015  21.328  0.00  0.00     0.030 A 
HETATM    8  C   UNL     1       5.898  10.916  22.653  0.00  0.00     0.043 A 
HETATM    9  C   UNL     1       4.976   9.935  23.012  0.00  0.00     0.068 A 
HETATM   10 CL   UNL     1       4.575   9.713  24.674  0.00  0.00    -0.081 Cl
HETATM   11  C   UNL     1       4.425   9.104  22.038  0.00  0.00     0.090 A 
HETATM   12  C   UNL     1       4.774   9.260  20.704  0.00  0.00     0.075 A 
HETATM   13  C   UNL     1       5.756  10.193  20.354  0.00  0.00     0.081 A 
BRANCH  11  14
HETATM   14  O   UNL     1       3.557   8.093  22.349  0.00  0.00    -0.359 OA
HETATM   15  H   UNL     1       2.817   8.143  21.715  0.00  0.00     0.217 HD
ENDBRANCH  11  14
BRANCH  13  16
HETATM   16  O   UNL     1       6.158  10.244  19.045  0.00  0.00    -0.360 OA
HETATM   17  H   UNL     1       5.678   9.579  18.528  0.00  0.00     0.217 HD
ENDBRANCH  13  16
ENDBRANCH   6   7
BRANCH   1  18
HETATM   18  C   UNL     1       7.252  13.893  22.733  0.00  0.00    -0.021 A 
HETATM   19  C   UNL     1       6.111  14.663  22.472  0.00  0.00     0.015 A 
HETATM   20  C   UNL     1       5.417  15.317  23.501  0.00  0.00     0.037 A 
HETATM   21  C   UNL     1       5.819  15.169  24.824  0.00  0.00     0.068 A 
HETATM   22  C   UNL     1       6.950  14.402  25.101  0.00  0.00     0.037 A 
HETATM   23  C   UNL     1       7.680  13.800  24.066  0.00  0.00     0.015 A 
BRANCH  21  24
HETATM   24  O   UNL     1       5.196  15.707  25.917  0.00  0.00    -0.356 OA
HETATM   25  C   UNL     1       3.811  16.005  25.778  0.00  0.00     0.210 C 
ENDBRANCH  21  24
ENDBRANCH   1  18
BRANCH   2  26
HETATM   26  C   UNL     1       9.968  14.646  21.176  0.00  0.00     0.270 C 
HETATM   27  O   UNL     1      11.185  14.573  21.063  0.00  0.00    -0.266 OA
HETATM   28  N   UNL     1       9.358  15.848  21.515  0.00  0.00    -0.356 N 
HETATM   29  H   UNL     1       8.387  15.856  21.784  0.00  0.00     0.162 HD
BRANCH  28  30
HETATM   30  C   UNL     1      10.191  16.959  21.944  0.00  0.00     0.118 C 
HETATM   31  C   UNL     1      10.557  16.890  23.415  0.00  0.00     0.026 C 
ENDBRANCH  28  30
ENDBRANCH   2  26
TORSDOF 7
ENDMDL
MODEL 2
REMARK VINA RESULT:    -6.976      3.627      5.885
REMARK INTER + INTRA:         -10.869
REMARK INTER:                  -9.365
REMARK INTRA:                  -1.505
REMARK UNBOUND:                -1.446
REMARK  7 active torsions:
REMARK  status: ('A' for Active; 'I' for Inactive)
REMARK    1  A    between atoms: O_2  and  C_3 
REMARK    2  A    between atoms: C_6  and  C_9 
REMARK    3  A    between atoms: C_10  and  C_11 
REMARK       I    between atoms: C_11  and  N_13 
REMARK    4  A    between atoms: N_13  and  C_14 
REMARK    5  A    between atoms: C_19  and  C_20 
REMARK    6  A    between atoms: C_24  and  O_25 
REMARK    7  A    between atoms: C_27  and  O_28 
ROOT
HETATM    1  C   UNL     1       4.709  14.030  23.466  0.00  0.00     0.039 C 
HETATM    2  C   UNL     1       5.612  15.091  23.369  0.00  0.00     0.131 C 
HETATM    3  N   UNL     1       4.863  16.204  23.622  0.00  0.00    -0.271 N 
HETATM    4  H   UNL     1       5.158  17.171  23.555  0.00  0.00     0.189 HD
HETATM    5  N   UNL     1       3.608  15.969  24.001  0.00  0.00    -0.173 NA
HETATM    6  C   UNL     1       3.446  14.647  23.837  0.00  0.00     0.103 C 
ENDROOT
BRANCH   6   7
HETATM    7  C   UNL     1       2.129  14.014  24.055  0.00  0.00     0.030 A 
HETATM    8  C   UNL     1       1.390  13.556  22.950  0.00  0.00     0.043 A 
HETATM    9  C   UNL     1       0.059  13.170  23.095  0.00  0.00     0.068 A 
HETATM   10 CL   UNL     1      -0.875  12.800  21.694  0.00  0.00    -0.081 Cl
HETATM   11  C   UNL     1      -0.526  13.139  24.359  0.00  0.00     0.090 A 
HETATM   12  C   UNL     1       0.217  13.472  25.484  0.00  0.00     0.075 A 
HETATM   13  C   UNL     1       1.530  13.932  25.330  0.00  0.00     0.081 A 
BRANCH  11  14
HETATM   14  O   UNL     1      -1.843  12.819  24.545  0.00  0.00    -0.359 OA
HETATM   15  H   UNL     1      -2.170  12.446  23.705  0.00  0.00     0.217 HD
ENDBRANCH  11  14
BRANCH  13  16
HETATM   16  O   UNL     1       2.197  14.358  26.448  0.00  0.00    -0.360 OA
HETATM   17  H   UNL     1       3.022  13.858  26.548  0.00  0.00     0.217 HD
ENDBRANCH  13  16
ENDBRANCH   6   7
BRANCH   1  18
HETATM   18  C   UNL     1       5.040  12.613  23.271  0.00  0.00    -0.021 A 
HETATM   19  C   UNL     1       5.584  11.850  24.313  0.00  0.00     0.015 A 
HETATM   20  C   UNL     1       5.817  10.474  24.170  0.00  0.00     0.037 A 
HETATM   21  C   UNL     1       5.456   9.819  22.997  0.00  0.00     0.068 A 
HETATM   22  C   UNL     1       4.909  10.563  21.953  0.00  0.00     0.037 A 
HETATM   23  C   UNL     1       4.735  11.949  22.074  0.00  0.00     0.015 A 
BRANCH  21  24
HETATM   24  O   UNL     1       5.579   8.477  22.758  0.00  0.00    -0.356 OA
HETATM   25  C   UNL     1       5.068   8.002  21.518  0.00  0.00     0.210 C 
ENDBRANCH  21  24
ENDBRANCH   1  18
BRANCH   2  26
HETATM   26  C   UNL     1       7.015  15.143  23.020  0.00  0.00     0.270 C 
HETATM   27  O   UNL     1       7.422  15.268  21.873  0.00  0.00    -0.266 OA
HETATM   28  N   UNL     1       7.905  15.015  24.079  0.00  0.00    -0.356 N 
HETATM   29  H   UNL     1       7.566  14.730  24.984  0.00  0.00     0.162 HD
BRANCH  28  30
HETATM   30  C   UNL     1       9.315  14.812  23.789  0.00  0.00     0.118 C 
HETATM   31  C   UNL     1      10.171  16.013  24.145  0.00  0.00     0.026 C 
ENDBRANCH  28  30
ENDBRANCH   2  26
TORSDOF 7
ENDMDL
MODEL 3
REMARK VINA RESULT:    -6.930      2.299      5.616
REMARK INTER + INTRA:         -10.808
REMARK INTER:                  -9.284
REMARK INTRA:                  -1.524
REMARK UNBOUND:                -1.446
REMARK  7 active torsions:
REMARK  status: ('A' for Active; 'I' for Inactive)
REMARK    1  A    between atoms: O_2  and  C_3 
REMARK    2  A    between atoms: C_6  and  C_9 
REMARK    3  A    between atoms: C_10  and  C_11 
REMARK       I    between atoms: C_11  and  N_13 
REMARK    4  A    between atoms: N_13  and  C_14 
REMARK    5  A    between atoms: C_19  and  C_20 
REMARK    6  A    between atoms: C_24  and  O_25 
REMARK    7  A    between atoms: C_27  and  O_28 
ROOT
HETATM    1  C   UNL     1       7.106  13.434  22.093  0.00  0.00     0.039 C 
HETATM    2  C   UNL     1       8.038  13.936  21.181  0.00  0.00     0.131 C 
HETATM    3  N   UNL     1       7.968  15.291  21.330  0.00  0.00    -0.271 N 
HETATM    4  H   UNL     1       8.438  15.995  20.772  0.00  0.00     0.189 HD
HETATM    5  N   UNL     1       7.193  15.713  22.327  0.00  0.00    -0.173 NA
HETATM    6  C   UNL     1       6.577  14.606  22.770  0.00  0.00     0.103 C 
ENDROOT
BRANCH   6   7
HETATM    7  C   UNL     1       5.540  14.687  23.819  0.00  0.00     0.030 A 
HETATM    8  C   UNL     1       4.189  14.512  23.471  0.00  0.00     0.043 A 
HETATM    9  C   UNL     1       3.176  14.808  24.381  0.00  0.00     0.068 A 
HETATM   10 CL   UNL     1       1.532  14.770  23.864  0.00  0.00    -0.081 Cl
HETATM   11  C   UNL     1       3.495  15.187  25.684  0.00  0.00     0.090 A 
HETATM   12  C   UNL     1       4.821  15.252  26.090  0.00  0.00     0.075 A 
HETATM   13  C   UNL     1       5.839  15.028  25.155  0.00  0.00     0.081 A 
BRANCH  11  14
HETATM   14  O   UNL     1       2.539  15.538  26.595  0.00  0.00    -0.359 OA
HETATM   15  H   UNL     1       3.003  15.814  27.409  0.00  0.00     0.217 HD
ENDBRANCH  11  14
BRANCH  13  16
HETATM   16  O   UNL     1       7.135  15.209  25.560  0.00  0.00    -0.360 OA
HETATM   17  H   UNL     1       7.723  15.211  24.789  0.00  0.00     0.217 HD
ENDBRANCH  13  16
ENDBRANCH   6   7
BRANCH   1  18
HETATM   18  C   UNL     1       6.808  12.012  22.307  0.00  0.00    -0.021 A 
HETATM   19  C   UNL     1       5.697  11.410  21.702  0.00  0.00     0.015 A 
HETATM   20  C   UNL     1       5.454  10.033  21.822  0.00  0.00     0.037 A 
HETATM   21  C   UNL     1       6.352   9.218  22.503  0.00  0.00     0.068 A 
HETATM   22  C   UNL     1       7.465   9.801  23.105  0.00  0.00     0.037 A 
HETATM   23  C   UNL     1       7.674  11.187  23.039  0.00  0.00     0.015 A 
BRANCH  21  24
HETATM   24  O   UNL     1       6.257   7.860  22.640  0.00  0.00    -0.356 OA
HETATM   25  C   UNL     1       7.480   7.148  22.793  0.00  0.00     0.210 C 
ENDBRANCH  21  24
ENDBRANCH   1  18
BRANCH   2  26
HETATM   26  C   UNL     1       8.885  13.289  20.204  0.00  0.00     0.270 C 
HETATM   27  O   UNL     1       8.509  12.981  19.080  0.00  0.00    -0.266 OA
HETATM   28  N   UNL     1      10.179  13.002  20.622  0.00  0.00    -0.356 N 
HETATM   29  H   UNL     1      10.419  13.090  21.597  0.00  0.00     0.162 HD
BRANCH  28  30
HETATM   30  C   UNL     1      11.008  12.142  19.794  0.00  0.00     0.118 C 
HETATM   31  C   UNL     1      11.246  10.776  20.413  0.00  0.00     0.026 C 
ENDBRANCH  28  30
ENDBRANCH   2  26
TORSDOF 7
ENDMDL
MODEL 4
REMARK VINA RESULT:    -6.852      1.613      1.854
REMARK INTER + INTRA:         -10.701
REMARK INTER:                  -9.224
REMARK INTRA:                  -1.478
REMARK UNBOUND:                -1.446
REMARK  7 active torsions:
REMARK  status: ('A' for Active; 'I' for Inactive)
REMARK    1  A    between atoms: O_2  and  C_3 
REMARK    2  A    between atoms: C_6  and  C_9 
REMARK    3  A    between atoms: C_10  and  C_11 
REMARK       I    between atoms: C_11  and  N_13 
REMARK    4  A    between atoms: N_13  and  C_14 
REMARK    5  A    between atoms: C_19  and  C_20 
REMARK    6  A    between atoms: C_24  and  O_25 
REMARK    7  A    between atoms: C_27  and  O_28 
ROOT
HETATM    1  C   UNL     1       7.943  12.453  22.907  0.00  0.00     0.039 C 
HETATM    2  C   UNL     1       9.319  12.642  23.057  0.00  0.00     0.131 C 
HETATM    3  N   UNL     1       9.883  11.551  22.460  0.00  0.00    -0.271 N 
HETATM    4  H   UNL     1      10.864  11.296  22.448  0.00  0.00     0.189 HD
HETATM    5  N   UNL     1       9.031  10.747  21.827  0.00  0.00    -0.173 NA
HETATM    6  C   UNL     1       7.816  11.220  22.148  0.00  0.00     0.103 C 
ENDROOT
BRANCH   6   7
HETATM    7  C   UNL     1       6.593  10.515  21.714  0.00  0.00     0.030 A 
HETATM    8  C   UNL     1       5.757   9.925  22.678  0.00  0.00     0.043 A 
HETATM    9  C   UNL     1       4.730   9.062  22.297  0.00  0.00     0.068 A 
HETATM   10 CL   UNL     1       3.849   8.205  23.506  0.00  0.00    -0.081 Cl
HETATM   11  C   UNL     1       4.458   8.854  20.946  0.00  0.00     0.090 A 
HETATM   12  C   UNL     1       5.191   9.518  19.973  0.00  0.00     0.075 A 
HETATM   13  C   UNL     1       6.270  10.324  20.354  0.00  0.00     0.081 A 
BRANCH  11  14
HETATM   14  O   UNL     1       3.497   7.977  20.524  0.00  0.00    -0.359 OA
HETATM   15  H   UNL     1       2.695   8.150  21.054  0.00  0.00     0.217 HD
ENDBRANCH  11  14
BRANCH  13  16
HETATM   16  O   UNL     1       7.042  10.875  19.365  0.00  0.00    -0.360 OA
HETATM   17  H   UNL     1       6.482  11.379  18.755  0.00  0.00     0.217 HD
ENDBRANCH  13  16
ENDBRANCH   6   7
BRANCH   1  18
HETATM   18  C   UNL     1       6.903  13.367  23.393  0.00  0.00    -0.021 A 
HETATM   19  C   UNL     1       6.222  13.112  24.591  0.00  0.00     0.015 A 
HETATM   20  C   UNL     1       5.293  14.024  25.114  0.00  0.00     0.037 A 
HETATM   21  C   UNL     1       5.067  15.241  24.478  0.00  0.00     0.068 A 
HETATM   22  C   UNL     1       5.741  15.511  23.288  0.00  0.00     0.037 A 
HETATM   23  C   UNL     1       6.622  14.572  22.732  0.00  0.00     0.015 A 
BRANCH  21  24
HETATM   24  O   UNL     1       4.234  16.233  24.917  0.00  0.00    -0.356 OA
HETATM   25  C   UNL     1       3.542  15.991  26.137  0.00  0.00     0.210 C 
ENDBRANCH  21  24
ENDBRANCH   1  18
BRANCH   2  26
HETATM   26  C   UNL     1      10.091  13.666  23.726  0.00  0.00     0.270 C 
HETATM   27  O   UNL     1      10.232  13.722  24.941  0.00  0.00    -0.266 OA
HETATM   28  N   UNL     1      10.662  14.628  22.901  0.00  0.00    -0.356 N 
HETATM   29  H   UNL     1      10.390  14.679  21.933  0.00  0.00     0.162 HD
BRANCH  28  30
HETATM   30  C   UNL     1      11.241  15.816  23.507  0.00  0.00     0.118 C 
HETATM   31  C   UNL     1      10.532  17.094  23.096  0.00  0.00     0.026 C 
ENDBRANCH  28  30
ENDBRANCH   2  26
TORSDOF 7
ENDMDL
MODEL 5
REMARK VINA RESULT:    -6.807      2.363      2.745
REMARK INTER + INTRA:         -10.642
REMARK INTER:                  -9.181
REMARK INTRA:                  -1.461
REMARK UNBOUND:                -1.446
REMARK  7 active torsions:
REMARK  status: ('A' for Active; 'I' for Inactive)
REMARK    1  A    between atoms: O_2  and  C_3 
REMARK    2  A    between atoms: C_6  and  C_9 
REMARK    3  A    between atoms: C_10  and  C_11 
REMARK       I    between atoms: C_11  and  N_13 
REMARK    4  A    between atoms: N_13  and  C_14 
REMARK    5  A    between atoms: C_19  and  C_20 
REMARK    6  A    between atoms: C_24  and  O_25 
REMARK    7  A    between atoms: C_27  and  O_28 
ROOT
HETATM    1  C   UNL     1       8.179  13.085  23.886  0.00  0.00     0.039 C 
HETATM    2  C   UNL     1       9.511  13.187  24.293  0.00  0.00     0.131 C 
HETATM    3  N   UNL     1      10.126  12.106  23.731  0.00  0.00    -0.271 N 
HETATM    4  H   UNL     1      11.081  11.798  23.877  0.00  0.00     0.189 HD
HETATM    5  N   UNL     1       9.370  11.392  22.900  0.00  0.00    -0.173 NA
HETATM    6  C   UNL     1       8.139  11.911  23.030  0.00  0.00     0.103 C 
ENDROOT
BRANCH   6   7
HETATM    7  C   UNL     1       6.986  11.304  22.335  0.00  0.00     0.030 A 
HETATM    8  C   UNL     1       5.920  10.783  23.089  0.00  0.00     0.043 A 
HETATM    9  C   UNL     1       4.935  10.004  22.485  0.00  0.00     0.068 A 
HETATM   10 CL   UNL     1       3.752   9.220  23.464  0.00  0.00    -0.081 Cl
HETATM   11  C   UNL     1       4.942   9.816  21.104  0.00  0.00     0.090 A 
HETATM   12  C   UNL     1       5.916  10.419  20.320  0.00  0.00     0.075 A 
HETATM   13  C   UNL     1       6.947  11.137  20.934  0.00  0.00     0.081 A 
BRANCH  11  14
HETATM   14  O   UNL     1       4.029   9.017  20.473  0.00  0.00    -0.359 OA
HETATM   15  H   UNL     1       4.198   9.087  19.514  0.00  0.00     0.217 HD
ENDBRANCH  11  14
BRANCH  13  16
HETATM   16  O   UNL     1       7.953  11.624  20.142  0.00  0.00    -0.360 OA
HETATM   17  H   UNL     1       8.600  12.097  20.687  0.00  0.00     0.217 HD
ENDBRANCH  13  16
ENDBRANCH   6   7
BRANCH   1  18
HETATM   18  C   UNL     1       7.108  14.024  24.242  0.00  0.00    -0.021 A 
HETATM   19  C   UNL     1       6.452  14.775  23.257  0.00  0.00     0.015 A 
HETATM   20  C   UNL     1       5.366  15.605  23.571  0.00  0.00     0.037 A 
HETATM   21  C   UNL     1       4.874  15.658  24.871  0.00  0.00     0.068 A 
HETATM   22  C   UNL     1       5.513  14.913  25.861  0.00  0.00     0.037 A 
HETATM   23  C   UNL     1       6.638  14.132  25.559  0.00  0.00     0.015 A 
BRANCH  21  24
HETATM   24  O   UNL     1       3.791  16.381  25.290  0.00  0.00    -0.356 OA
HETATM   25  C   UNL     1       3.203  15.989  26.525  0.00  0.00     0.210 C 
ENDBRANCH  21  24
ENDBRANCH   1  18
BRANCH   2  26
HETATM   26  C   UNL     1      10.192  14.123  25.162  0.00  0.00     0.270 C 
HETATM   27  O   UNL     1      10.791  15.110  24.756  0.00  0.00    -0.266 OA
HETATM   28  N   UNL     1      10.153  13.825  26.519  0.00  0.00    -0.356 N 
HETATM   29  H   UNL     1       9.820  12.923  26.822  0.00  0.00     0.162 HD
BRANCH  28  30
HETATM   30  C   UNL     1      11.010  14.572  27.425  0.00  0.00     0.118 C 
HETATM   31  C   UNL     1      10.234  15.496  28.345  0.00  0.00     0.026 C 
ENDBRANCH  28  30
ENDBRANCH   2  26
TORSDOF 7
ENDMDL
MODEL 6
REMARK VINA RESULT:    -6.756      4.955      7.107
REMARK INTER + INTRA:         -10.572
REMARK INTER:                  -9.058
REMARK INTRA:                  -1.513
REMARK UNBOUND:                -1.446
REMARK  7 active torsions:
REMARK  status: ('A' for Active; 'I' for Inactive)
REMARK    1  A    between atoms: O_2  and  C_3 
REMARK    2  A    between atoms: C_6  and  C_9 
REMARK    3  A    between atoms: C_10  and  C_11 
REMARK       I    between atoms: C_11  and  N_13 
REMARK    4  A    between atoms: N_13  and  C_14 
REMARK    5  A    between atoms: C_19  and  C_20 
REMARK    6  A    between atoms: C_24  and  O_25 
REMARK    7  A    between atoms: C_27  and  O_28 
ROOT
HETATM    1  C   UNL     1       2.927  13.227  24.844  0.00  0.00     0.039 C 
HETATM    2  C   UNL     1       3.657  14.056  25.700  0.00  0.00     0.131 C 
HETATM    3  N   UNL     1       2.710  14.778  26.368  0.00  0.00    -0.271 N 
HETATM    4  H   UNL     1       2.865  15.546  27.012  0.00  0.00     0.189 HD
HETATM    5  N   UNL     1       1.450  14.415  26.134  0.00  0.00    -0.173 NA
HETATM    6  C   UNL     1       1.534  13.520  25.139  0.00  0.00     0.103 C 
ENDROOT
BRANCH   6   7
HETATM    7  C   UNL     1       0.315  12.960  24.522  0.00  0.00     0.030 A 
HETATM    8  C   UNL     1       0.164  13.004  23.124  0.00  0.00     0.043 A 
HETATM    9  C   UNL     1      -1.061  12.700  22.531  0.00  0.00     0.068 A 
HETATM   10 CL   UNL     1      -1.268  12.950  20.838  0.00  0.00    -0.081 Cl
HETATM   11  C   UNL     1      -2.123  12.252  23.312  0.00  0.00     0.090 A 
HETATM   12  C   UNL     1      -1.965  12.084  24.681  0.00  0.00     0.075 A 
HETATM   13  C   UNL     1      -0.761  12.461  25.286  0.00  0.00     0.081 A 
BRANCH  11  14
HETATM   14  O   UNL     1      -3.358  11.993  22.783  0.00  0.00    -0.359 OA
HETATM   15  H   UNL     1      -3.413  12.471  21.934  0.00  0.00     0.217 HD
ENDBRANCH  11  14
BRANCH  13  16
HETATM   16  O   UNL     1      -0.677  12.389  26.652  0.00  0.00    -0.360 OA
HETATM   17  H   UNL     1      -1.268  11.693  26.980  0.00  0.00     0.217 HD
ENDBRANCH  13  16
ENDBRANCH   6   7
BRANCH   1  18
HETATM   18  C   UNL     1       3.505  12.256  23.907  0.00  0.00    -0.021 A 
HETATM   19  C   UNL     1       4.191  12.679  22.761  0.00  0.00     0.015 A 
HETATM   20  C   UNL     1       4.828  11.765  21.909  0.00  0.00     0.037 A 
HETATM   21  C   UNL     1       4.840  10.409  22.216  0.00  0.00     0.068 A 
HETATM   22  C   UNL     1       4.166   9.972  23.355  0.00  0.00     0.037 A 
HETATM   23  C   UNL     1       3.476  10.879  24.173  0.00  0.00     0.015 A 
BRANCH  21  24
HETATM   24  O   UNL     1       5.471   9.430  21.498  0.00  0.00    -0.356 OA
HETATM   25  C   UNL     1       4.637   8.477  20.849  0.00  0.00     0.210 C 
ENDBRANCH  21  24
ENDBRANCH   1  18
BRANCH   2  26
HETATM   26  C   UNL     1       5.078  14.253  25.882  0.00  0.00     0.270 C 
HETATM   27  O   UNL     1       5.642  15.323  25.695  0.00  0.00    -0.266 OA
HETATM   28  N   UNL     1       5.799  13.129  26.266  0.00  0.00    -0.356 N 
HETATM   29  H   UNL     1       5.361  12.222  26.237  0.00  0.00     0.162 HD
BRANCH  28  30
HETATM   30  C   UNL     1       7.251  13.182  26.232  0.00  0.00     0.118 C 
HETATM   31  C   UNL     1       7.841  12.479  25.023  0.00  0.00     0.026 C 
ENDBRANCH  28  30
ENDBRANCH   2  26
TORSDOF 7
ENDMDL
MODEL 7
REMARK VINA RESULT:    -6.663      2.337      6.060
REMARK INTER + INTRA:         -10.446
REMARK INTER:                  -9.032
REMARK INTRA:                  -1.414
REMARK UNBOUND:                -1.446
REMARK  7 active torsions:
REMARK  status: ('A' for Active; 'I' for Inactive)
REMARK    1  A    between atoms: O_2  and  C_3 
REMARK    2  A    between atoms: C_6  and  C_9 
REMARK    3  A    between atoms: C_10  and  C_11 
REMARK       I    between atoms: C_11  and  N_13 
REMARK    4  A    between atoms: N_13  and  C_14 
REMARK    5  A    between atoms: C_19  and  C_20 
REMARK    6  A    between atoms: C_24  and  O_25 
REMARK    7  A    between atoms: C_27  and  O_28 
ROOT
HETATM    1  C   UNL     1       6.919  12.162  21.677  0.00  0.00     0.039 C 
HETATM    2  C   UNL     1       6.642  11.052  20.875  0.00  0.00     0.131 C 
HETATM    3  N   UNL     1       7.743  10.919  20.080  0.00  0.00    -0.271 N 
HETATM    4  H   UNL     1       7.869  10.274  19.308  0.00  0.00     0.189 HD
HETATM    5  N   UNL     1       8.753  11.736  20.369  0.00  0.00    -0.173 NA
HETATM    6  C   UNL     1       8.258  12.575  21.292  0.00  0.00     0.103 C 
ENDROOT
BRANCH   6   7
HETATM    7  C   UNL     1       9.061  13.711  21.790  0.00  0.00     0.030 A 
HETATM    8  C   UNL     1       9.545  13.688  23.110  0.00  0.00     0.043 A 
HETATM    9  C   UNL     1      10.102  14.831  23.682  0.00  0.00     0.068 A 
HETATM   10 CL   UNL     1      10.508  14.830  25.358  0.00  0.00    -0.081 Cl
HETATM   11  C   UNL     1      10.276  15.982  22.917  0.00  0.00     0.090 A 
HETATM   12  C   UNL     1       9.916  15.994  21.576  0.00  0.00     0.075 A 
HETATM   13  C   UNL     1       9.288  14.873  21.022  0.00  0.00     0.081 A 
BRANCH  11  14
HETATM   14  O   UNL     1      10.767  17.143  23.448  0.00  0.00    -0.359 OA
HETATM   15  H   UNL     1      11.524  16.902  24.016  0.00  0.00     0.217 HD
ENDBRANCH  11  14
BRANCH  13  16
HETATM   16  O   UNL     1       8.845  14.957  19.729  0.00  0.00    -0.360 OA
HETATM   17  H   UNL     1       7.967  14.551  19.655  0.00  0.00     0.217 HD
ENDBRANCH  13  16
ENDBRANCH   6   7
BRANCH   1  18
HETATM   18  C   UNL     1       6.026  12.711  22.705  0.00  0.00    -0.021 A 
HETATM   19  C   UNL     1       5.678  11.957  23.834  0.00  0.00     0.015 A 
HETATM   20  C   UNL     1       4.903  12.503  24.869  0.00  0.00     0.037 A 
HETATM   21  C   UNL     1       4.506  13.835  24.822  0.00  0.00     0.068 A 
HETATM   22  C   UNL     1       4.848  14.599  23.707  0.00  0.00     0.037 A 
HETATM   23  C   UNL     1       5.569  14.035  22.644  0.00  0.00     0.015 A 
BRANCH  21  24
HETATM   24  O   UNL     1       3.800  14.496  25.789  0.00  0.00    -0.356 OA
HETATM   25  C   UNL     1       3.679  15.906  25.638  0.00  0.00     0.210 C 
ENDBRANCH  21  24
ENDBRANCH   1  18
BRANCH   2  26
HETATM   26  C   UNL     1       5.476  10.203  20.763  0.00  0.00     0.270 C 
HETATM   27  O   UNL     1       4.356  10.622  20.497  0.00  0.00    -0.266 OA
HETATM   28  N   UNL     1       5.688   8.850  21.003  0.00  0.00    -0.356 N 
HETATM   29  H   UNL     1       6.564   8.546  21.397  0.00  0.00     0.162 HD
BRANCH  28  30
HETATM   30  C   UNL     1       4.537   7.975  21.149  0.00  0.00     0.118 C 
HETATM   31  C   UNL     1       4.275   7.130  19.916  0.00  0.00     0.026 C 
ENDBRANCH  28  30
ENDBRANCH   2  26
TORSDOF 7
ENDMDL
MODEL 8
REMARK VINA RESULT:    -6.636      2.163      2.543
REMARK INTER + INTRA:         -10.411
REMARK INTER:                  -8.964
REMARK INTRA:                  -1.446
REMARK UNBOUND:                -1.446
REMARK  7 active torsions:
REMARK  status: ('A' for Active; 'I' for Inactive)
REMARK    1  A    between atoms: O_2  and  C_3 
REMARK    2  A    between atoms: C_6  and  C_9 
REMARK    3  A    between atoms: C_10  and  C_11 
REMARK       I    between atoms: C_11  and  N_13 
REMARK    4  A    between atoms: N_13  and  C_14 
REMARK    5  A    between atoms: C_19  and  C_20 
REMARK    6  A    between atoms: C_24  and  O_25 
REMARK    7  A    between atoms: C_27  and  O_28 
ROOT
HETATM    1  C   UNL     1       6.542  13.201  22.908  0.00  0.00     0.039 C 
HETATM    2  C   UNL     1       7.620  13.490  22.068  0.00  0.00     0.131 C 
HETATM    3  N   UNL     1       7.987  12.282  21.550  0.00  0.00    -0.271 N 
HETATM    4  H   UNL     1       8.790  12.083  20.965  0.00  0.00     0.189 HD
HETATM    5  N   UNL     1       7.183  11.266  21.858  0.00  0.00    -0.173 NA
HETATM    6  C   UNL     1       6.327  11.771  22.760  0.00  0.00     0.103 C 
ENDROOT
BRANCH   6   7
HETATM    7  C   UNL     1       5.335  10.904  23.427  0.00  0.00     0.030 A 
HETATM    8  C   UNL     1       3.985  11.299  23.462  0.00  0.00     0.043 A 
HETATM    9  C   UNL     1       3.070  10.631  24.274  0.00  0.00     0.068 A 
HETATM   10 CL   UNL     1       1.472  11.255  24.443  0.00  0.00    -0.081 Cl
HETATM   11  C   UNL     1       3.463   9.499  24.986  0.00  0.00     0.090 A 
HETATM   12  C   UNL     1       4.760   9.018  24.877  0.00  0.00     0.075 A 
HETATM   13  C   UNL     1       5.698   9.731  24.122  0.00  0.00     0.081 A 
BRANCH  11  14
HETATM   14  O   UNL     1       2.616   8.843  25.836  0.00  0.00    -0.359 OA
HETATM   15  H   UNL     1       2.942   8.996  26.743  0.00  0.00     0.217 HD
ENDBRANCH  11  14
BRANCH  13  16
HETATM   16  O   UNL     1       6.996   9.291  24.126  0.00  0.00    -0.360 OA
HETATM   17  H   UNL     1       7.165   8.774  24.928  0.00  0.00     0.217 HD
ENDBRANCH  13  16
ENDBRANCH   6   7
BRANCH   1  18
HETATM   18  C   UNL     1       5.796  14.185  23.702  0.00  0.00    -0.021 A 
HETATM   19  C   UNL     1       4.881  15.055  23.097  0.00  0.00     0.015 A 
HETATM   20  C   UNL     1       4.094  15.935  23.855  0.00  0.00     0.037 A 
HETATM   21  C   UNL     1       4.166  15.922  25.245  0.00  0.00     0.068 A 
HETATM   22  C   UNL     1       5.068  15.058  25.862  0.00  0.00     0.037 A 
HETATM   23  C   UNL     1       5.900  14.223  25.101  0.00  0.00     0.015 A 
BRANCH  21  24
HETATM   24  O   UNL     1       3.413  16.686  26.094  0.00  0.00    -0.356 OA
HETATM   25  C   UNL     1       2.842  16.020  27.214  0.00  0.00     0.210 C 
ENDBRANCH  21  24
ENDBRANCH   1  18
BRANCH   2  26
HETATM   26  C   UNL     1       8.325  14.721  21.783  0.00  0.00     0.270 C 
HETATM   27  O   UNL     1       7.956  15.534  20.945  0.00  0.00    -0.266 OA
HETATM   28  N   UNL     1       9.490  14.932  22.511  0.00  0.00    -0.356 N 
HETATM   29  H   UNL     1       9.879  14.180  23.057  0.00  0.00     0.162 HD
BRANCH  28  30
HETATM   30  C   UNL     1      10.378  16.013  22.115  0.00  0.00     0.118 C 
HETATM   31  C   UNL     1      10.699  16.963  23.254  0.00  0.00     0.026 C 
ENDBRANCH  28  30
ENDBRANCH   2  26
TORSDOF 7
ENDMDL
MODEL 9
REMARK VINA RESULT:    -6.635      3.753      7.360
REMARK INTER + INTRA:         -10.409
REMARK INTER:                  -8.978
REMARK INTRA:                  -1.431
REMARK UNBOUND:                -1.446
REMARK  7 active torsions:
REMARK  status: ('A' for Active; 'I' for Inactive)
REMARK    1  A    between atoms: O_2  and  C_3 
REMARK    2  A    between atoms: C_6  and  C_9 
REMARK    3  A    between atoms: C_10  and  C_11 
REMARK       I    between atoms: C_11  and  N_13 
REMARK    4  A    between atoms: N_13  and  C_14 
REMARK    5  A    between atoms: C_19  and  C_20 
REMARK    6  A    between atoms: C_24  and  O_25 
REMARK    7  A    between atoms: C_27  and  O_28 
ROOT
HETATM    1  C   UNL     1       4.446  13.727  23.528  0.00  0.00     0.039 C 
HETATM    2  C   UNL     1       3.170  14.183  23.865  0.00  0.00     0.131 C 
HETATM    3  N   UNL     1       3.327  15.522  24.073  0.00  0.00    -0.271 N 
HETATM    4  H   UNL     1       2.633  16.176  24.418  0.00  0.00     0.189 HD
HETATM    5  N   UNL     1       4.533  16.004  23.779  0.00  0.00    -0.173 NA
HETATM    6  C   UNL     1       5.278  14.919  23.519  0.00  0.00     0.103 C 
ENDROOT
BRANCH   6   7
HETATM    7  C   UNL     1       6.726  15.042  23.253  0.00  0.00     0.030 A 
HETATM    8  C   UNL     1       7.188  15.026  21.926  0.00  0.00     0.043 A 
HETATM    9  C   UNL     1       8.550  14.906  21.648  0.00  0.00     0.068 A 
HETATM   10 CL   UNL     1       9.068  14.694  20.018  0.00  0.00    -0.081 Cl
HETATM   11  C   UNL     1       9.477  14.903  22.688  0.00  0.00     0.090 A 
HETATM   12  C   UNL     1       9.055  15.038  24.004  0.00  0.00     0.075 A 
HETATM   13  C   UNL     1       7.686  15.081  24.287  0.00  0.00     0.081 A 
BRANCH  11  14
HETATM   14  O   UNL     1      10.816  14.735  22.469  0.00  0.00    -0.359 OA
HETATM   15  H   UNL     1      11.273  15.491  22.883  0.00  0.00     0.217 HD
ENDBRANCH  11  14
BRANCH  13  16
HETATM   16  O   UNL     1       7.301  15.102  25.602  0.00  0.00    -0.360 OA
HETATM   17  H   UNL     1       7.042  16.002  25.854  0.00  0.00     0.217 HD
ENDBRANCH  13  16
ENDBRANCH   6   7
BRANCH   1  18
HETATM   18  C   UNL     1       4.796  12.336  23.213  0.00  0.00    -0.021 A 
HETATM   19  C   UNL     1       4.501  11.785  21.959  0.00  0.00     0.015 A 
HETATM   20  C   UNL     1       4.912  10.490  21.612  0.00  0.00     0.037 A 
HETATM   21  C   UNL     1       5.679   9.736  22.495  0.00  0.00     0.068 A 
HETATM   22  C   UNL     1       5.986  10.272  23.745  0.00  0.00     0.037 A 
HETATM   23  C   UNL     1       5.520  11.543  24.115  0.00  0.00     0.015 A 
BRANCH  21  24
HETATM   24  O   UNL     1       6.187   8.489  22.253  0.00  0.00    -0.356 OA
HETATM   25  C   UNL     1       7.456   8.195  22.827  0.00  0.00     0.210 C 
ENDBRANCH  21  24
ENDBRANCH   1  18
BRANCH   2  26
HETATM   26  C   UNL     1       1.912  13.494  24.055  0.00  0.00     0.270 C 
HETATM   27  O   UNL     1       1.734  12.633  24.908  0.00  0.00    -0.266 OA
HETATM   28  N   UNL     1       0.891  13.847  23.181  0.00  0.00    -0.356 N 
HETATM   29  H   UNL     1       1.100  14.414  22.374  0.00  0.00     0.162 HD
BRANCH  28  30
HETATM   30  C   UNL     1      -0.314  13.036  23.146  0.00  0.00     0.118 C 
HETATM   31  C   UNL     1      -0.908  12.919  21.754  0.00  0.00     0.026 C 
ENDBRANCH  28  30
ENDBRANCH   2  26
TORSDOF 7
ENDMDL
