MODEL 1
REMARK VINA RESULT:    -8.231      0.000      0.000
REMARK INTER + INTRA:         -11.450
REMARK INTER:                 -10.917
REMARK INTRA:                  -0.533
REMARK UNBOUND:                -1.054
REMARK  5 active torsions:
REMARK  status: ('A' for Active; 'I' for Inactive)
REMARK       I    between atoms: N_5  and  C_6 
REMARK    1  A    between atoms: C_6  and  C_8 
REMARK    2  A    between atoms: C_15  and  C_19 
REMARK    3  A    between atoms: C_16  and  O_18 
REMARK       I    between atoms: C_19  and  N_21 
REMARK    4  A    between atoms: N_21  and  C_23 
REMARK    5  A    between atoms: C_26  and  N_29 
ROOT
HETATM    1  C   UNL     1      -1.882  16.890  20.163  0.00  0.00     0.157 A 
HETATM    2  N   UNL     1      -2.817  17.715  19.644  0.00  0.00    -0.168 NA
HETATM    3  N   UNL     1      -3.984  17.214  20.054  0.00  0.00    -0.277 N 
HETATM    4  H   UNL     1      -4.834  17.673  19.745  0.00  0.00     0.189 HD
HETATM    5  C   UNL     1      -2.515  15.850  20.936  0.00  0.00     0.029 A 
HETATM    6  C   UNL     1      -3.878  16.081  20.806  0.00  0.00     0.065 A 
HETATM    7  C   UNL     1      -2.114  14.720  21.691  0.00  0.00     0.036 A 
HETATM    8  C   UNL     1      -3.071  13.800  22.210  0.00  0.00     0.066 A 
HETATM    9  C   UNL     1      -4.423  14.052  21.950  0.00  0.00     0.083 A 
HETATM   10  C   UNL     1      -4.855  15.229  21.326  0.00  0.00     0.069 A 
ENDROOT
BRANCH   8  11
HETATM   11  C   UNL     1      -2.495  12.542  22.795  0.00  0.00     0.260 C 
HETATM   12  O   UNL     1      -2.886  11.526  22.210  0.00  0.00    -0.267 OA
HETATM   13  N   UNL     1      -1.625  12.480  23.919  0.00  0.00    -0.318 N 
HETATM   14  C   UNL     1      -1.305  13.616  24.783  0.00  0.00     0.159 C 
BRANCH  13  15
HETATM   15  C   UNL     1      -1.038  11.202  24.299  0.00  0.00     0.037 A 
HETATM   16  C   UNL     1       0.064  10.682  23.620  0.00  0.00     0.032 A 
HETATM   17  C   UNL     1       0.599   9.422  23.934  0.00  0.00     0.031 A 
HETATM   18  C   UNL     1       0.073   8.611  24.945  0.00  0.00     0.030 A 
HETATM   19  C   UNL     1      -0.973   9.172  25.687  0.00  0.00     0.031 A 
HETATM   20  C   UNL     1      -1.520  10.440  25.376  0.00  0.00     0.032 A 
BRANCH  18  21
HETATM   21  N   UNL     1       0.558   7.338  25.157  0.00  0.00    -0.377 N 
HETATM   22  C   UNL     1       1.874   7.025  25.728  0.00  0.00     0.149 C 
HETATM   23  C   UNL     1       1.714   6.128  26.966  0.00  0.00     0.187 C 
HETATM   24  O   UNL     1       0.962   4.939  26.666  0.00  0.00    -0.388 OA
HETATM   25  C   UNL     1      -0.349   5.291  26.191  0.00  0.00     0.187 C 
HETATM   26  C   UNL     1      -0.285   6.151  24.918  0.00  0.00     0.149 C 
ENDBRANCH  18  21
ENDBRANCH  13  15
ENDBRANCH   8  11
BRANCH   9  27
HETATM   27  O   UNL     1      -5.426  13.149  22.169  0.00  0.00    -0.360 OA
HETATM   28  H   UNL     1      -5.545  12.647  21.341  0.00  0.00     0.217 HD
ENDBRANCH   9  27
BRANCH   1  29
HETATM   29  C   UNL     1      -0.432  17.039  19.859  0.00  0.00     0.275 C 
HETATM   30  N   UNL     1       0.480  17.075  20.915  0.00  0.00    -0.347 N 
HETATM   31  C   UNL     1       0.214  16.786  22.316  0.00  0.00     0.126 C 
HETATM   32  C   UNL     1       1.895  17.327  20.695  0.00  0.00     0.126 C 
HETATM   33  C   UNL     1       1.586  16.551  22.932  0.00  0.00     0.021 C 
HETATM   34  C   UNL     1       2.495  17.437  22.093  0.00  0.00     0.021 C 
HETATM   35  O   UNL     1      -0.040  17.143  18.694  0.00  0.00    -0.266 OA
ENDBRANCH   1  29
TORSDOF 5
ENDMDL
MODEL 2
REMARK VINA RESULT:    -8.034      2.145      2.723
REMARK INTER + INTRA:         -11.202
REMARK INTER:                 -10.411
REMARK INTRA:                  -0.791
REMARK UNBOUND:                -1.054
REMARK  5 active torsions:
REMARK  status: ('A' for Active; 'I' for Inactive)
REMARK       I    between atoms: N_5  and  C_6 
REMARK    1  A    between atoms: C_6  and  C_8 
REMARK    2  A    between atoms: C_15  and  C_19 
REMARK    3  A    between atoms: C_16  and  O_18 
REMARK       I    between atoms: C_19  and  N_21 
REMARK    4  A    between atoms: N_21  and  C_23 
REMARK    5  A    between atoms: C_26  and  N_29 
ROOT
HETATM    1  C   UNL     1      -0.043  16.943  21.277  0.00  0.00     0.157 A 
HETATM    2  N   UNL     1      -0.568  17.717  20.302  0.00  0.00    -0.168 NA
HETATM    3  N   UNL     1      -1.832  17.306  20.179  0.00  0.00    -0.277 N 
HETATM    4  H   UNL     1      -2.408  17.742  19.467  0.00  0.00     0.189 HD
HETATM    5  C   UNL     1      -1.044  16.033  21.777  0.00  0.00     0.029 A 
HETATM    6  C   UNL     1      -2.175  16.281  21.010  0.00  0.00     0.065 A 
HETATM    7  C   UNL     1      -1.126  15.003  22.746  0.00  0.00     0.036 A 
HETATM    8  C   UNL     1      -2.288  14.186  22.860  0.00  0.00     0.066 A 
HETATM    9  C   UNL     1      -3.348  14.437  21.982  0.00  0.00     0.083 A 
HETATM   10  C   UNL     1      -3.350  15.532  21.109  0.00  0.00     0.069 A 
ENDROOT
BRANCH   8  11
HETATM   11  C   UNL     1      -2.149  13.001  23.774  0.00  0.00     0.260 C 
HETATM   12  O   UNL     1      -2.467  11.941  23.226  0.00  0.00    -0.267 OA
HETATM   13  N   UNL     1      -1.737  13.056  25.135  0.00  0.00    -0.318 N 
HETATM   14  C   UNL     1      -1.562  14.290  25.899  0.00  0.00     0.159 C 
BRANCH  13  15
HETATM   15  C   UNL     1      -1.520  11.815  25.867  0.00  0.00     0.037 A 
HETATM   16  C   UNL     1      -2.324  11.464  26.952  0.00  0.00     0.032 A 
HETATM   17  C   UNL     1      -2.084  10.304  27.705  0.00  0.00     0.031 A 
HETATM   18  C   UNL     1      -1.035   9.424  27.420  0.00  0.00     0.030 A 
HETATM   19  C   UNL     1      -0.287   9.726  26.277  0.00  0.00     0.031 A 
HETATM   20  C   UNL     1      -0.520  10.895  25.512  0.00  0.00     0.032 A 
BRANCH  18  21
HETATM   21  N   UNL     1      -0.767   8.350  28.242  0.00  0.00    -0.377 N 
HETATM   22  C   UNL     1      -0.886   6.941  27.849  0.00  0.00     0.149 C 
HETATM   23  C   UNL     1       0.448   6.212  28.076  0.00  0.00     0.187 C 
HETATM   24  O   UNL     1       0.905   6.355  29.432  0.00  0.00    -0.388 OA
HETATM   25  C   UNL     1       1.091   7.745  29.748  0.00  0.00     0.187 C 
HETATM   26  C   UNL     1      -0.214   8.546  29.596  0.00  0.00     0.149 C 
ENDBRANCH  18  21
ENDBRANCH  13  15
ENDBRANCH   8  11
BRANCH   9  27
HETATM   27  O   UNL     1      -4.414  13.598  21.809  0.00  0.00    -0.360 OA
HETATM   28  H   UNL     1      -4.055  12.699  21.694  0.00  0.00     0.217 HD
ENDBRANCH   9  27
BRANCH   1  29
HETATM   29  C   UNL     1       1.394  17.012  21.660  0.00  0.00     0.275 C 
HETATM   30  N   UNL     1       2.207  15.901  21.434  0.00  0.00    -0.347 N 
HETATM   31  C   UNL     1       1.872  14.706  20.675  0.00  0.00     0.126 C 
HETATM   32  C   UNL     1       3.590  15.862  21.882  0.00  0.00     0.126 C 
HETATM   33  C   UNL     1       3.210  14.042  20.385  0.00  0.00     0.021 C 
HETATM   34  C   UNL     1       4.059  14.442  21.582  0.00  0.00     0.021 C 
HETATM   35  O   UNL     1       1.859  18.029  22.180  0.00  0.00    -0.266 OA
ENDBRANCH   1  29
TORSDOF 5
ENDMDL
MODEL 3
REMARK VINA RESULT:    -7.960      5.189     10.373
REMARK INTER + INTRA:         -11.108
REMARK INTER:                  -9.988
REMARK INTRA:                  -1.120
REMARK UNBOUND:                -1.054
REMARK  5 active torsions:
REMARK  status: ('A' for Active; 'I' for Inactive)
REMARK       I    between atoms: N_5  and  C_6 
REMARK    1  A    between atoms: C_6  and  C_8 
REMARK    2  A    between atoms: C_15  and  C_19 
REMARK    3  A    between atoms: C_16  and  O_18 
REMARK       I    between atoms: C_19  and  N_21 
REMARK    4  A    between atoms: N_21  and  C_23 
REMARK    5  A    between atoms: C_26  and  N_29 
ROOT
HETATM    1  C   UNL     1       5.727   5.954  20.437  0.00  0.00     0.157 A 
HETATM    2  N   UNL     1       6.955   5.393  20.403  0.00  0.00    -0.168 NA
HETATM    3  N   UNL     1       7.313   5.270  21.683  0.00  0.00    -0.277 N 
HETATM    4  H   UNL     1       8.232   4.892  21.887  0.00  0.00     0.189 HD
HETATM    5  C   UNL     1       5.318   6.165  21.804  0.00  0.00     0.029 A 
HETATM    6  C   UNL     1       6.393   5.740  22.573  0.00  0.00     0.065 A 
HETATM    7  C   UNL     1       4.198   6.700  22.488  0.00  0.00     0.036 A 
HETATM    8  C   UNL     1       4.215   6.889  23.900  0.00  0.00     0.066 A 
HETATM    9  C   UNL     1       5.376   6.525  24.591  0.00  0.00     0.083 A 
HETATM   10  C   UNL     1       6.443   5.870  23.963  0.00  0.00     0.069 A 
ENDROOT
BRANCH   8  11
HETATM   11  C   UNL     1       3.054   7.664  24.454  0.00  0.00     0.260 C 
HETATM   12  O   UNL     1       3.402   8.725  24.984  0.00  0.00    -0.267 OA
HETATM   13  N   UNL     1       1.695   7.242  24.428  0.00  0.00    -0.318 N 
HETATM   14  C   UNL     1       1.248   5.911  24.019  0.00  0.00     0.159 C 
BRANCH  13  15
HETATM   15  C   UNL     1       0.654   8.153  24.886  0.00  0.00     0.037 A 
HETATM   16  C   UNL     1       0.038   9.046  24.010  0.00  0.00     0.032 A 
HETATM   17  C   UNL     1      -0.919   9.974  24.450  0.00  0.00     0.031 A 
HETATM   18  C   UNL     1      -1.323  10.062  25.786  0.00  0.00     0.030 A 
HETATM   19  C   UNL     1      -0.774   9.105  26.648  0.00  0.00     0.031 A 
HETATM   20  C   UNL     1       0.194   8.168  26.212  0.00  0.00     0.032 A 
BRANCH  18  21
HETATM   21  N   UNL     1      -2.188  11.052  26.202  0.00  0.00    -0.377 N 
HETATM   22  C   UNL     1      -2.368  12.346  25.532  0.00  0.00     0.149 C 
HETATM   23  C   UNL     1      -3.846  12.549  25.162  0.00  0.00     0.187 C 
HETATM   24  O   UNL     1      -4.703  12.415  26.309  0.00  0.00    -0.388 OA
HETATM   25  C   UNL     1      -4.558  11.105  26.883  0.00  0.00     0.187 C 
HETATM   26  C   UNL     1      -3.112  10.833  27.331  0.00  0.00     0.149 C 
ENDBRANCH  18  21
ENDBRANCH  13  15
ENDBRANCH   8  11
BRANCH   9  27
HETATM   27  O   UNL     1       5.632   6.865  25.890  0.00  0.00    -0.360 OA
HETATM   28  H   UNL     1       5.653   7.838  25.933  0.00  0.00     0.217 HD
ENDBRANCH   9  27
BRANCH   1  29
HETATM   29  C   UNL     1       5.002   6.357  19.201  0.00  0.00     0.275 C 
HETATM   30  N   UNL     1       4.230   5.406  18.530  0.00  0.00    -0.347 N 
HETATM   31  C   UNL     1       3.875   4.074  18.997  0.00  0.00     0.126 C 
HETATM   32  C   UNL     1       3.586   5.701  17.261  0.00  0.00     0.126 C 
HETATM   33  C   UNL     1       2.710   3.651  18.114  0.00  0.00     0.021 C 
HETATM   34  C   UNL     1       2.991   4.373  16.805  0.00  0.00     0.021 C 
HETATM   35  O   UNL     1       5.088   7.507  18.766  0.00  0.00    -0.266 OA
ENDBRANCH   1  29
TORSDOF 5
ENDMDL
MODEL 4
REMARK VINA RESULT:    -7.939      1.621      1.982
REMARK INTER + INTRA:         -11.082
REMARK INTER:                 -10.864
REMARK INTRA:                  -0.218
REMARK UNBOUND:                -1.054
REMARK  5 active torsions:
REMARK  status: ('A' for Active; 'I' for Inactive)
REMARK       I    between atoms: N_5  and  C_6 
REMARK    1  A    between atoms: C_6  and  C_8 
REMARK    2  A    between atoms: C_15  and  C_19 
REMARK    3  A    between atoms: C_16  and  O_18 
REMARK       I    between atoms: C_19  and  N_21 
REMARK    4  A    between atoms: N_21  and  C_23 
REMARK    5  A    between atoms: C_26  and  N_29 
ROOT
HETATM    1  C   UNL     1      -0.089  16.832  21.146  0.00  0.00     0.157 A 
HETATM    2  N   UNL     1      -0.615  17.700  20.254  0.00  0.00    -0.168 NA
HETATM    3  N   UNL     1      -1.768  17.146  19.874  0.00  0.00    -0.277 N 
HETATM    4  H   UNL     1      -2.320  17.627  19.172  0.00  0.00     0.189 HD
HETATM    5  C   UNL     1      -0.975  15.708  21.322  0.00  0.00     0.029 A 
HETATM    6  C   UNL     1      -2.031  15.939  20.451  0.00  0.00     0.065 A 
HETATM    7  C   UNL     1      -0.999  14.507  22.073  0.00  0.00     0.036 A 
HETATM    8  C   UNL     1      -2.012  13.526  21.867  0.00  0.00     0.066 A 
HETATM    9  C   UNL     1      -2.986  13.792  20.899  0.00  0.00     0.083 A 
HETATM   10  C   UNL     1      -3.067  15.026  20.240  0.00  0.00     0.069 A 
ENDROOT
BRANCH   8  11
HETATM   11  C   UNL     1      -1.786  12.217  22.569  0.00  0.00     0.260 C 
HETATM   12  O   UNL     1      -2.248  11.258  21.941  0.00  0.00    -0.267 OA
HETATM   13  N   UNL     1      -1.152  12.059  23.833  0.00  0.00    -0.318 N 
HETATM   14  C   UNL     1      -0.785  13.163  24.719  0.00  0.00     0.159 C 
BRANCH  13  15
HETATM   15  C   UNL     1      -0.882  10.719  24.335  0.00  0.00     0.037 A 
HETATM   16  C   UNL     1      -0.098   9.819  23.614  0.00  0.00     0.032 A 
HETATM   17  C   UNL     1       0.115   8.504  24.055  0.00  0.00     0.031 A 
HETATM   18  C   UNL     1      -0.434   8.009  25.243  0.00  0.00     0.030 A 
HETATM   19  C   UNL     1      -1.143   8.938  26.013  0.00  0.00     0.031 A 
HETATM   20  C   UNL     1      -1.366  10.266  25.574  0.00  0.00     0.032 A 
BRANCH  18  21
HETATM   21  N   UNL     1      -0.289   6.684  25.593  0.00  0.00    -0.377 N 
HETATM   22  C   UNL     1       0.165   5.621  24.688  0.00  0.00     0.149 C 
HETATM   23  C   UNL     1       1.393   4.911  25.280  0.00  0.00     0.187 C 
HETATM   24  O   UNL     1       1.131   4.414  26.604  0.00  0.00    -0.388 OA
HETATM   25  C   UNL     1       0.774   5.499  27.477  0.00  0.00     0.187 C 
HETATM   26  C   UNL     1      -0.482   6.238  26.986  0.00  0.00     0.149 C 
ENDBRANCH  18  21
ENDBRANCH  13  15
ENDBRANCH   8  11
BRANCH   9  27
HETATM   27  O   UNL     1      -3.868  12.861  20.423  0.00  0.00    -0.360 OA
HETATM   28  H   UNL     1      -3.762  12.835  19.455  0.00  0.00     0.217 HD
ENDBRANCH   9  27
BRANCH   1  29
HETATM   29  C   UNL     1       1.260  17.028  21.745  0.00  0.00     0.275 C 
HETATM   30  N   UNL     1       2.230  16.041  21.563  0.00  0.00    -0.347 N 
HETATM   31  C   UNL     1       2.158  14.891  20.675  0.00  0.00     0.126 C 
HETATM   32  C   UNL     1       3.530  16.118  22.210  0.00  0.00     0.126 C 
HETATM   33  C   UNL     1       3.596  14.412  20.542  0.00  0.00     0.021 C 
HETATM   34  C   UNL     1       4.211  14.794  21.880  0.00  0.00     0.021 C 
HETATM   35  O   UNL     1       1.516  18.039  22.403  0.00  0.00    -0.266 OA
ENDBRANCH   1  29
TORSDOF 5
ENDMDL
MODEL 5
REMARK VINA RESULT:    -7.927      2.810      3.413
REMARK INTER + INTRA:         -11.066
REMARK INTER:                 -10.383
REMARK INTRA:                  -0.683
REMARK UNBOUND:                -1.054
REMARK  5 active torsions:
REMARK  status: ('A' for Active; 'I' for Inactive)
REMARK       I    between atoms: N_5  and  C_6 
REMARK    1  A    between atoms: C_6  and  C_8 
REMARK    2  A    between atoms: C_15  and  C_19 
REMARK    3  A    between atoms: C_16  and  O_18 
REMARK       I    between atoms: C_19  and  N_21 
REMARK    4  A    between atoms: N_21  and  C_23 
REMARK    5  A    between atoms: C_26  and  N_29 
ROOT
HETATM    1  C   UNL     1      -1.283  16.126  21.665  0.00  0.00     0.157 A 
HETATM    2  N   UNL     1      -2.083  16.499  20.642  0.00  0.00    -0.168 NA
HETATM    3  N   UNL     1      -3.213  15.811  20.821  0.00  0.00    -0.277 N 
HETATM    4  H   UNL     1      -3.952  15.921  20.135  0.00  0.00     0.189 HD
HETATM    5  C   UNL     1      -1.969  15.180  22.509  0.00  0.00     0.029 A 
HETATM    6  C   UNL     1      -3.202  14.981  21.903  0.00  0.00     0.065 A 
HETATM    7  C   UNL     1      -1.691  14.436  23.683  0.00  0.00     0.036 A 
HETATM    8  C   UNL     1      -2.597  13.447  24.162  0.00  0.00     0.066 A 
HETATM    9  C   UNL     1      -3.775  13.237  23.437  0.00  0.00     0.083 A 
HETATM   10  C   UNL     1      -4.139  14.049  22.355  0.00  0.00     0.069 A 
ENDROOT
BRANCH   8  11
HETATM   11  C   UNL     1      -2.074  12.589  25.279  0.00  0.00     0.260 C 
HETATM   12  O   UNL     1      -2.045  13.185  26.360  0.00  0.00    -0.267 OA
HETATM   13  N   UNL     1      -1.616  11.248  25.142  0.00  0.00    -0.318 N 
HETATM   14  C   UNL     1      -1.418  10.567  23.864  0.00  0.00     0.159 C 
BRANCH  13  15
HETATM   15  C   UNL     1      -1.257  10.490  26.333  0.00  0.00     0.037 A 
HETATM   16  C   UNL     1      -2.104  10.439  27.441  0.00  0.00     0.032 A 
HETATM   17  C   UNL     1      -1.741   9.766  28.618  0.00  0.00     0.031 A 
HETATM   18  C   UNL     1      -0.519   9.100  28.760  0.00  0.00     0.030 A 
HETATM   19  C   UNL     1       0.290   9.073  27.618  0.00  0.00     0.031 A 
HETATM   20  C   UNL     1      -0.067   9.751  26.427  0.00  0.00     0.032 A 
BRANCH  18  21
HETATM   21  N   UNL     1      -0.153   8.538  29.964  0.00  0.00    -0.377 N 
HETATM   22  C   UNL     1      -0.599   7.226  30.448  0.00  0.00     0.149 C 
HETATM   23  C   UNL     1       0.615   6.339  30.767  0.00  0.00     0.187 C 
HETATM   24  O   UNL     1       1.510   6.977  31.694  0.00  0.00    -0.388 OA
HETATM   25  C   UNL     1       1.989   8.216  31.144  0.00  0.00     0.187 C 
HETATM   26  C   UNL     1       0.838   9.191  30.841  0.00  0.00     0.149 C 
ENDBRANCH  18  21
ENDBRANCH  13  15
ENDBRANCH   8  11
BRANCH   9  27
HETATM   27  O   UNL     1      -4.614  12.175  23.629  0.00  0.00    -0.360 OA
HETATM   28  H   UNL     1      -5.322  12.244  22.962  0.00  0.00     0.217 HD
ENDBRANCH   9  27
BRANCH   1  29
HETATM   29  C   UNL     1       0.126  16.593  21.783  0.00  0.00     0.275 C 
HETATM   30  N   UNL     1       1.161  15.676  21.589  0.00  0.00    -0.347 N 
HETATM   31  C   UNL     1       1.046  14.317  21.084  0.00  0.00     0.126 C 
HETATM   32  C   UNL     1       2.553  16.040  21.795  0.00  0.00     0.126 C 
HETATM   33  C   UNL     1       2.461  13.935  20.672  0.00  0.00     0.021 C 
HETATM   34  C   UNL     1       3.326  14.735  21.634  0.00  0.00     0.021 C 
HETATM   35  O   UNL     1       0.379  17.768  22.058  0.00  0.00    -0.266 OA
ENDBRANCH   1  29
TORSDOF 5
ENDMDL
MODEL 6
REMARK VINA RESULT:    -7.750      3.433      6.276
REMARK INTER + INTRA:         -10.843
REMARK INTER:                  -9.813
REMARK INTRA:                  -1.030
REMARK UNBOUND:                -1.054
REMARK  5 active torsions:
REMARK  status: ('A' for Active; 'I' for Inactive)
REMARK       I    between atoms: N_5  and  C_6 
REMARK    1  A    between atoms: C_6  and  C_8 
REMARK    2  A    between atoms: C_15  and  C_19 
REMARK    3  A    between atoms: C_16  and  O_18 
REMARK       I    between atoms: C_19  and  N_21 
REMARK    4  A    between atoms: N_21  and  C_23 
REMARK    5  A    between atoms: C_26  and  N_29 
ROOT
HETATM    1  C   UNL     1      -3.309  12.422  24.796  0.00  0.00     0.157 A 
HETATM    2  N   UNL     1      -4.358  12.692  25.604  0.00  0.00    -0.168 NA
HETATM    3  N   UNL     1      -4.064  12.095  26.761  0.00  0.00    -0.277 N 
HETATM    4  H   UNL     1      -4.744  12.148  27.511  0.00  0.00     0.189 HD
HETATM    5  C   UNL     1      -2.329  11.637  25.505  0.00  0.00     0.029 A 
HETATM    6  C   UNL     1      -2.878  11.421  26.762  0.00  0.00     0.065 A 
HETATM    7  C   UNL     1      -1.070  11.047  25.234  0.00  0.00     0.036 A 
HETATM    8  C   UNL     1      -0.441  10.181  26.174  0.00  0.00     0.066 A 
HETATM    9  C   UNL     1      -1.108   9.936  27.379  0.00  0.00     0.083 A 
HETATM   10  C   UNL     1      -2.284  10.610  27.732  0.00  0.00     0.069 A 
ENDROOT
BRANCH   8  11
HETATM   11  C   UNL     1       0.774   9.458  25.664  0.00  0.00     0.260 C 
HETATM   12  O   UNL     1       1.764  10.192  25.589  0.00  0.00    -0.267 OA
HETATM   13  N   UNL     1       0.811   8.092  25.266  0.00  0.00    -0.318 N 
HETATM   14  C   UNL     1      -0.367   7.238  25.123  0.00  0.00     0.159 C 
BRANCH  13  15
HETATM   15  C   UNL     1       2.088   7.484  24.915  0.00  0.00     0.037 A 
HETATM   16  C   UNL     1       2.600   7.572  23.620  0.00  0.00     0.032 A 
HETATM   17  C   UNL     1       3.796   6.937  23.252  0.00  0.00     0.031 A 
HETATM   18  C   UNL     1       4.555   6.181  24.153  0.00  0.00     0.030 A 
HETATM   19  C   UNL     1       4.090   6.170  25.473  0.00  0.00     0.031 A 
HETATM   20  C   UNL     1       2.884   6.806  25.852  0.00  0.00     0.032 A 
BRANCH  18  21
HETATM   21  N   UNL     1       5.669   5.487  23.732  0.00  0.00    -0.377 N 
HETATM   22  C   UNL     1       5.964   4.088  24.071  0.00  0.00     0.149 C 
HETATM   23  C   UNL     1       6.156   3.263  22.789  0.00  0.00     0.187 C 
HETATM   24  O   UNL     1       7.164   3.833  21.937  0.00  0.00    -0.388 OA
HETATM   25  C   UNL     1       6.794   5.170  21.560  0.00  0.00     0.187 C 
HETATM   26  C   UNL     1       6.629   6.085  22.786  0.00  0.00     0.149 C 
ENDBRANCH  18  21
ENDBRANCH  13  15
ENDBRANCH   8  11
BRANCH   9  27
HETATM   27  O   UNL     1      -0.754   8.955  28.265  0.00  0.00    -0.360 OA
HETATM   28  H   UNL     1      -1.483   8.872  28.906  0.00  0.00     0.217 HD
ENDBRANCH   9  27
BRANCH   1  29
HETATM   29  C   UNL     1      -3.284  12.827  23.363  0.00  0.00     0.275 C 
HETATM   30  N   UNL     1      -2.611  13.996  23.003  0.00  0.00    -0.347 N 
HETATM   31  C   UNL     1      -1.740  14.802  23.844  0.00  0.00     0.126 C 
HETATM   32  C   UNL     1      -2.639  14.505  21.642  0.00  0.00     0.126 C 
HETATM   33  C   UNL     1      -0.956  15.672  22.871  0.00  0.00     0.021 C 
HETATM   34  C   UNL     1      -1.928  15.853  21.714  0.00  0.00     0.021 C 
HETATM   35  O   UNL     1      -3.857  12.149  22.507  0.00  0.00    -0.266 OA
ENDBRANCH   1  29
TORSDOF 5
ENDMDL
MODEL 7
REMARK VINA RESULT:    -7.458      3.422      6.432
REMARK INTER + INTRA:         -10.474
REMARK INTER:                  -9.461
REMARK INTRA:                  -1.013
REMARK UNBOUND:                -1.054
REMARK  5 active torsions:
REMARK  status: ('A' for Active; 'I' for Inactive)
REMARK       I    between atoms: N_5  and  C_6 
REMARK    1  A    between atoms: C_6  and  C_8 
REMARK    2  A    between atoms: C_15  and  C_19 
REMARK    3  A    between atoms: C_16  and  O_18 
REMARK       I    between atoms: C_19  and  N_21 
REMARK    4  A    between atoms: N_21  and  C_23 
REMARK    5  A    between atoms: C_26  and  N_29 
ROOT
HETATM    1  C   UNL     1      -3.094  12.219  24.704  0.00  0.00     0.157 A 
HETATM    2  N   UNL     1      -3.957  12.823  25.551  0.00  0.00    -0.168 NA
HETATM    3  N   UNL     1      -3.671  12.315  26.752  0.00  0.00    -0.277 N 
HETATM    4  H   UNL     1      -4.232  12.615  27.542  0.00  0.00     0.189 HD
HETATM    5  C   UNL     1      -2.238  11.316  25.431  0.00  0.00     0.029 A 
HETATM    6  C   UNL     1      -2.673  11.386  26.748  0.00  0.00     0.065 A 
HETATM    7  C   UNL     1      -1.181  10.418  25.140  0.00  0.00     0.036 A 
HETATM    8  C   UNL     1      -0.656   9.546  26.137  0.00  0.00     0.066 A 
HETATM    9  C   UNL     1      -1.218   9.609  27.418  0.00  0.00     0.083 A 
HETATM   10  C   UNL     1      -2.166  10.579  27.769  0.00  0.00     0.069 A 
ENDROOT
BRANCH   8  11
HETATM   11  C   UNL     1       0.300   8.502  25.634  0.00  0.00     0.260 C 
HETATM   12  O   UNL     1      -0.250   7.415  25.431  0.00  0.00    -0.267 OA
HETATM   13  N   UNL     1       1.697   8.693  25.437  0.00  0.00    -0.318 N 
HETATM   14  C   UNL     1       2.440   9.877  25.865  0.00  0.00     0.159 C 
BRANCH  13  15
HETATM   15  C   UNL     1       2.483   7.633  24.820  0.00  0.00     0.037 A 
HETATM   16  C   UNL     1       2.985   6.572  25.573  0.00  0.00     0.032 A 
HETATM   17  C   UNL     1       3.798   5.579  25.003  0.00  0.00     0.031 A 
HETATM   18  C   UNL     1       4.153   5.582  23.650  0.00  0.00     0.030 A 
HETATM   19  C   UNL     1       3.574   6.594  22.875  0.00  0.00     0.031 A 
HETATM   20  C   UNL     1       2.755   7.600  23.443  0.00  0.00     0.032 A 
BRANCH  18  21
HETATM   21  N   UNL     1       5.036   4.650  23.147  0.00  0.00    -0.377 N 
HETATM   22  C   UNL     1       4.952   4.052  21.808  0.00  0.00     0.149 C 
HETATM   23  C   UNL     1       6.264   4.284  21.041  0.00  0.00     0.187 C 
HETATM   24  O   UNL     1       7.401   3.800  21.776  0.00  0.00    -0.388 OA
HETATM   25  C   UNL     1       7.494   4.474  23.043  0.00  0.00     0.187 C 
HETATM   26  C   UNL     1       6.238   4.252  23.903  0.00  0.00     0.149 C 
ENDBRANCH  18  21
ENDBRANCH  13  15
ENDBRANCH   8  11
BRANCH   9  27
HETATM   27  O   UNL     1      -0.991   8.685  28.400  0.00  0.00    -0.360 OA
HETATM   28  H   UNL     1      -1.854   8.297  28.632  0.00  0.00     0.217 HD
ENDBRANCH   9  27
BRANCH   1  29
HETATM   29  C   UNL     1      -3.145  12.434  23.231  0.00  0.00     0.275 C 
HETATM   30  N   UNL     1      -2.700  13.650  22.710  0.00  0.00    -0.347 N 
HETATM   31  C   UNL     1      -1.991  14.704  23.420  0.00  0.00     0.126 C 
HETATM   32  C   UNL     1      -2.822  13.967  21.297  0.00  0.00     0.126 C 
HETATM   33  C   UNL     1      -1.382  15.569  22.326  0.00  0.00     0.021 C 
HETATM   34  C   UNL     1      -2.371  15.419  21.180  0.00  0.00     0.021 C 
HETATM   35  O   UNL     1      -3.585  11.559  22.482  0.00  0.00    -0.266 OA
ENDBRANCH   1  29
TORSDOF 5
ENDMDL
MODEL 8
REMARK VINA RESULT:    -7.441      3.936     10.530
REMARK INTER + INTRA:         -10.452
REMARK INTER:                  -9.271
REMARK INTRA:                  -1.181
REMARK UNBOUND:                -1.054
REMARK  5 active torsions:
REMARK  status: ('A' for Active; 'I' for Inactive)
REMARK       I    between atoms: N_5  and  C_6 
REMARK    1  A    between atoms: C_6  and  C_8 
REMARK    2  A    between atoms: C_15  and  C_19 
REMARK    3  A    between atoms: C_16  and  O_18 
REMARK       I    between atoms: C_19  and  N_21 
REMARK    4  A    between atoms: N_21  and  C_23 
REMARK    5  A    between atoms: C_26  and  N_29 
ROOT
HETATM    1  C   UNL     1       4.852   4.622  23.747  0.00  0.00     0.157 A 
HETATM    2  N   UNL     1       5.900   3.921  24.234  0.00  0.00    -0.168 NA
HETATM    3  N   UNL     1       5.913   4.186  25.542  0.00  0.00    -0.277 N 
HETATM    4  H   UNL     1       6.652   3.778  26.104  0.00  0.00     0.189 HD
HETATM    5  C   UNL     1       4.192   5.330  24.816  0.00  0.00     0.029 A 
HETATM    6  C   UNL     1       4.937   5.046  25.953  0.00  0.00     0.065 A 
HETATM    7  C   UNL     1       3.089   6.207  24.960  0.00  0.00     0.036 A 
HETATM    8  C   UNL     1       2.817   6.854  26.200  0.00  0.00     0.066 A 
HETATM    9  C   UNL     1       3.674   6.590  27.274  0.00  0.00     0.083 A 
HETATM   10  C   UNL     1       4.688   5.625  27.199  0.00  0.00     0.069 A 
ENDROOT
BRANCH   8  11
HETATM   11  C   UNL     1       1.758   7.919  26.147  0.00  0.00     0.260 C 
HETATM   12  O   UNL     1       2.232   9.059  26.178  0.00  0.00    -0.267 OA
HETATM   13  N   UNL     1       0.355   7.683  26.104  0.00  0.00    -0.318 N 
HETATM   14  C   UNL     1      -0.271   6.374  26.286  0.00  0.00     0.159 C 
BRANCH  13  15
HETATM   15  C   UNL     1      -0.554   8.806  25.922  0.00  0.00     0.037 A 
HETATM   16  C   UNL     1      -0.859   9.292  24.650  0.00  0.00     0.032 A 
HETATM   17  C   UNL     1      -1.681  10.414  24.464  0.00  0.00     0.031 A 
HETATM   18  C   UNL     1      -2.252  11.115  25.532  0.00  0.00     0.030 A 
HETATM   19  C   UNL     1      -2.021  10.574  26.802  0.00  0.00     0.031 A 
HETATM   20  C   UNL     1      -1.191   9.443  26.999  0.00  0.00     0.032 A 
BRANCH  18  21
HETATM   21  N   UNL     1      -2.969  12.273  25.318  0.00  0.00    -0.377 N 
HETATM   22  C   UNL     1      -2.572  13.606  25.788  0.00  0.00     0.149 C 
HETATM   23  C   UNL     1      -2.492  14.583  24.603  0.00  0.00     0.187 C 
HETATM   24  O   UNL     1      -3.724  14.619  23.862  0.00  0.00    -0.388 OA
HETATM   25  C   UNL     1      -4.031  13.312  23.349  0.00  0.00     0.187 C 
HETATM   26  C   UNL     1      -4.180  12.275  24.475  0.00  0.00     0.149 C 
ENDBRANCH  18  21
ENDBRANCH  13  15
ENDBRANCH   8  11
BRANCH   9  27
HETATM   27  O   UNL     1       3.687   7.306  28.438  0.00  0.00    -0.360 OA
HETATM   28  H   UNL     1       2.877   7.848  28.451  0.00  0.00     0.217 HD
ENDBRANCH   9  27
BRANCH   1  29
HETATM   29  C   UNL     1       4.544   4.681  22.292  0.00  0.00     0.275 C 
HETATM   30  N   UNL     1       5.116   5.694  21.520  0.00  0.00    -0.347 N 
HETATM   31  C   UNL     1       6.160   6.623  21.925  0.00  0.00     0.126 C 
HETATM   32  C   UNL     1       4.773   5.875  20.119  0.00  0.00     0.126 C 
HETATM   33  C   UNL     1       6.696   7.196  20.621  0.00  0.00     0.021 C 
HETATM   34  C   UNL     1       5.483   7.159  19.705  0.00  0.00     0.021 C 
HETATM   35  O   UNL     1       3.786   3.857  21.774  0.00  0.00    -0.266 OA
ENDBRANCH   1  29
TORSDOF 5
ENDMDL
MODEL 9
REMARK VINA RESULT:    -7.426      2.428      9.765
REMARK INTER + INTRA:         -10.434
REMARK INTER:                  -9.380
REMARK INTRA:                  -1.054
REMARK UNBOUND:                -1.054
REMARK  5 active torsions:
REMARK  status: ('A' for Active; 'I' for Inactive)
REMARK       I    between atoms: N_5  and  C_6 
REMARK    1  A    between atoms: C_6  and  C_8 
REMARK    2  A    between atoms: C_15  and  C_19 
REMARK    3  A    between atoms: C_16  and  O_18 
REMARK       I    between atoms: C_19  and  N_21 
REMARK    4  A    between atoms: N_21  and  C_23 
REMARK    5  A    between atoms: C_26  and  N_29 
ROOT
HETATM    1  C   UNL     1       0.984   5.801  25.092  0.00  0.00     0.157 A 
HETATM    2  N   UNL     1       0.833   4.868  26.057  0.00  0.00    -0.168 NA
HETATM    3  N   UNL     1       0.084   5.458  26.992  0.00  0.00    -0.277 N 
HETATM    4  H   UNL     1      -0.127   4.934  27.834  0.00  0.00     0.189 HD
HETATM    5  C   UNL     1       0.279   7.005  25.454  0.00  0.00     0.029 A 
HETATM    6  C   UNL     1      -0.258   6.747  26.709  0.00  0.00     0.065 A 
HETATM    7  C   UNL     1       0.062   8.293  24.904  0.00  0.00     0.036 A 
HETATM    8  C   UNL     1      -0.591   9.315  25.651  0.00  0.00     0.066 A 
HETATM    9  C   UNL     1      -1.016   9.003  26.947  0.00  0.00     0.083 A 
HETATM   10  C   UNL     1      -0.938   7.704  27.465  0.00  0.00     0.069 A 
ENDROOT
BRANCH   8  11
HETATM   11  C   UNL     1      -0.554  10.683  25.030  0.00  0.00     0.260 C 
HETATM   12  O   UNL     1       0.558  11.214  25.122  0.00  0.00    -0.267 OA
HETATM   13  N   UNL     1      -1.661  11.345  24.429  0.00  0.00    -0.318 N 
HETATM   14  C   UNL     1      -3.042  10.867  24.485  0.00  0.00     0.159 C 
BRANCH  13  15
HETATM   15  C   UNL     1      -1.451  12.616  23.749  0.00  0.00     0.037 A 
HETATM   16  C   UNL     1      -1.038  12.665  22.417  0.00  0.00     0.032 A 
HETATM   17  C   UNL     1      -0.769  13.881  21.770  0.00  0.00     0.031 A 
HETATM   18  C   UNL     1      -0.902  15.119  22.408  0.00  0.00     0.030 A 
HETATM   19  C   UNL     1      -1.405  15.075  23.713  0.00  0.00     0.031 A 
HETATM   20  C   UNL     1      -1.676  13.852  24.375  0.00  0.00     0.032 A 
BRANCH  18  21
HETATM   21  N   UNL     1      -0.531  16.286  21.775  0.00  0.00    -0.377 N 
HETATM   22  C   UNL     1       0.807  16.886  21.837  0.00  0.00     0.149 C 
HETATM   23  C   UNL     1       1.368  17.076  20.418  0.00  0.00     0.187 C 
HETATM   24  O   UNL     1       0.474  17.841  19.592  0.00  0.00    -0.388 OA
HETATM   25  C   UNL     1      -0.796  17.175  19.490  0.00  0.00     0.187 C 
HETATM   26  C   UNL     1      -1.457  16.988  20.866  0.00  0.00     0.149 C 
ENDBRANCH  18  21
ENDBRANCH  13  15
ENDBRANCH   8  11
BRANCH   9  27
HETATM   27  O   UNL     1      -1.434   9.932  27.860  0.00  0.00    -0.360 OA
HETATM   28  H   UNL     1      -1.286  10.810  27.464  0.00  0.00     0.217 HD
ENDBRANCH   9  27
BRANCH   1  29
HETATM   29  C   UNL     1       1.848   5.578  23.899  0.00  0.00     0.275 C 
HETATM   30  N   UNL     1       3.048   6.283  23.793  0.00  0.00    -0.347 N 
HETATM   31  C   UNL     1       3.682   7.097  24.819  0.00  0.00     0.126 C 
HETATM   32  C   UNL     1       3.884   6.195  22.608  0.00  0.00     0.126 C 
HETATM   33  C   UNL     1       5.120   7.265  24.347  0.00  0.00     0.021 C 
HETATM   34  C   UNL     1       4.991   7.218  22.832  0.00  0.00     0.021 C 
HETATM   35  O   UNL     1       1.506   4.793  23.012  0.00  0.00    -0.266 OA
ENDBRANCH   1  29
TORSDOF 5
ENDMDL
