MODEL 1
REMARK VINA RESULT:    -9.025      0.000      0.000
REMARK INTER + INTRA:         -12.338
REMARK INTER:                 -11.216
REMARK INTRA:                  -1.122
REMARK UNBOUND:                -0.939
REMARK  5 active torsions:
REMARK  status: ('A' for Active; 'I' for Inactive)
REMARK       I    between atoms: C_2  and  N_3 
REMARK    1  A    between atoms: C_2  and  C_12 
REMARK    2  A    between atoms: N_3  and  C_5 
REMARK    3  A    between atoms: C_13  and  O_14 
REMARK    4  A    between atoms: C_20  and  C_21 
REMARK    5  A    between atoms: C_21  and  C_22 
ROOT
HETATM    1  C   UNL     1       8.511  13.196  21.314  0.00  0.00     0.066 C 
HETATM    2  C   UNL     1       8.781  13.608  20.004  0.00  0.00     0.083 C 
HETATM    3  C   UNL     1       9.861  13.090  19.283  0.00  0.00     0.069 C 
HETATM    4  C   UNL     1      10.746  12.245  19.957  0.00  0.00     0.065 A 
HETATM    5  N   UNL     1      11.904  11.656  19.540  0.00  0.00    -0.277 N 
HETATM    6  H   UNL     1      12.332  11.715  18.624  0.00  0.00     0.189 HD
HETATM    7  N   UNL     1      12.558  10.990  20.496  0.00  0.00    -0.178 NA
HETATM    8  C   UNL     1      11.797  11.145  21.595  0.00  0.00     0.071 A 
HETATM    9  C   UNL     1      10.607  11.894  21.296  0.00  0.00     0.020 A 
HETATM   10  C   UNL     1       9.463  12.371  21.978  0.00  0.00     0.035 C 
ENDROOT
BRANCH   1  11
HETATM   11  C   UNL     1       7.337  13.657  22.126  0.00  0.00     0.260 C 
HETATM   12  O   UNL     1       6.313  12.992  21.943  0.00  0.00    -0.267 OA
HETATM   13  N   UNL     1       7.404  14.777  23.005  0.00  0.00    -0.318 N 
HETATM   14  C   UNL     1       8.485  15.773  22.962  0.00  0.00     0.159 C 
BRANCH  13  15
HETATM   15  C   UNL     1       6.288  15.078  23.899  0.00  0.00     0.037 A 
HETATM   16  C   UNL     1       5.157  15.779  23.455  0.00  0.00     0.030 A 
HETATM   17  C   UNL     1       4.117  16.146  24.323  0.00  0.00     0.009 A 
HETATM   18  C   UNL     1       4.164  15.806  25.672  0.00  0.00    -0.062 A 
HETATM   19  C   UNL     1       3.094  16.248  26.624  0.00  0.00     0.048 C 
HETATM   20  C   UNL     1       5.248  15.058  26.127  0.00  0.00     0.009 A 
HETATM   21  C   UNL     1       6.284  14.689  25.252  0.00  0.00     0.030 A 
ENDBRANCH  13  15
ENDBRANCH   1  11
BRANCH   2  22
HETATM   22  O   UNL     1       8.067  14.571  19.339  0.00  0.00    -0.360 OA
HETATM   23  H   UNL     1       8.672  15.298  19.103  0.00  0.00     0.217 HD
ENDBRANCH   2  22
BRANCH   8  24
HETATM   24  C   UNL     1      12.392  10.712  22.894  0.00  0.00     0.100 C 
BRANCH  24  25
HETATM   25  C   UNL     1      11.404  10.803  24.025  0.00  0.00    -0.052 A 
HETATM   26  C   UNL     1      10.332   9.903  24.055  0.00  0.00     0.014 A 
HETATM   27  C   UNL     1       9.230  10.118  24.888  0.00  0.00    -0.061 A 
HETATM   28  C   UNL     1       8.027   9.234  24.752  0.00  0.00     0.048 C 
HETATM   29  C   UNL     1       9.259  11.177  25.798  0.00  0.00     0.007 A 
HETATM   30  C   UNL     1      10.346  12.054  25.826  0.00  0.00     0.001 A 
HETATM   31  C   UNL     1      11.402  11.877  24.930  0.00  0.00     0.007 A 
ENDBRANCH  24  25
ENDBRANCH   8  24
TORSDOF 5
ENDMDL
MODEL 2
REMARK VINA RESULT:    -8.835      3.244      5.440
REMARK INTER + INTRA:         -12.099
REMARK INTER:                 -11.034
REMARK INTRA:                  -1.065
REMARK UNBOUND:                -0.939
REMARK  5 active torsions:
REMARK  status: ('A' for Active; 'I' for Inactive)
REMARK       I    between atoms: C_2  and  N_3 
REMARK    1  A    between atoms: C_2  and  C_12 
REMARK    2  A    between atoms: N_3  and  C_5 
REMARK    3  A    between atoms: C_13  and  O_14 
REMARK    4  A    between atoms: C_20  and  C_21 
REMARK    5  A    between atoms: C_21  and  C_22 
ROOT
HETATM    1  C   UNL     1       6.659  14.236  24.839  0.00  0.00     0.066 C 
HETATM    2  C   UNL     1       7.381  14.071  26.025  0.00  0.00     0.083 C 
HETATM    3  C   UNL     1       8.663  14.607  26.182  0.00  0.00     0.069 C 
HETATM    4  C   UNL     1       9.259  15.199  25.065  0.00  0.00     0.065 A 
HETATM    5  N   UNL     1      10.503  15.735  24.900  0.00  0.00    -0.277 N 
HETATM    6  H   UNL     1      11.236  15.816  25.594  0.00  0.00     0.189 HD
HETATM    7  N   UNL     1      10.776  16.120  23.651  0.00  0.00    -0.178 NA
HETATM    8  C   UNL     1       9.660  15.827  22.958  0.00  0.00     0.071 A 
HETATM    9  C   UNL     1       8.645  15.284  23.819  0.00  0.00     0.020 A 
HETATM   10  C   UNL     1       7.320  14.804  23.713  0.00  0.00     0.035 C 
ENDROOT
BRANCH   1  11
HETATM   11  C   UNL     1       5.257  13.747  24.622  0.00  0.00     0.260 C 
HETATM   12  O   UNL     1       5.161  12.518  24.559  0.00  0.00    -0.267 OA
HETATM   13  N   UNL     1       4.149  14.633  24.477  0.00  0.00    -0.318 N 
HETATM   14  C   UNL     1       4.296  16.069  24.195  0.00  0.00     0.159 C 
BRANCH  13  15
HETATM   15  C   UNL     1       2.786  14.107  24.441  0.00  0.00     0.037 A 
HETATM   16  C   UNL     1       2.257  13.514  23.285  0.00  0.00     0.030 A 
HETATM   17  C   UNL     1       0.924  13.079  23.211  0.00  0.00     0.009 A 
HETATM   18  C   UNL     1       0.073  13.209  24.306  0.00  0.00    -0.062 A 
HETATM   19  C   UNL     1      -1.369  12.812  24.221  0.00  0.00     0.048 C 
HETATM   20  C   UNL     1       0.591  13.741  25.485  0.00  0.00     0.009 A 
HETATM   21  C   UNL     1       1.928  14.169  25.554  0.00  0.00     0.030 A 
ENDBRANCH  13  15
ENDBRANCH   1  11
BRANCH   2  22
HETATM   22  O   UNL     1       6.939  13.343  27.100  0.00  0.00    -0.360 OA
HETATM   23  H   UNL     1       6.341  12.645  26.778  0.00  0.00     0.217 HD
ENDBRANCH   2  22
BRANCH   8  24
HETATM   24  C   UNL     1       9.746  15.923  21.470  0.00  0.00     0.100 C 
BRANCH  24  25
HETATM   25  C   UNL     1       9.669  14.572  20.812  0.00  0.00    -0.052 A 
HETATM   26  C   UNL     1      10.772  13.714  20.909  0.00  0.00     0.014 A 
HETATM   27  C   UNL     1      10.888  12.591  20.085  0.00  0.00    -0.061 A 
HETATM   28  C   UNL     1      12.167  11.808  20.091  0.00  0.00     0.048 C 
HETATM   29  C   UNL     1       9.827  12.247  19.244  0.00  0.00     0.007 A 
HETATM   30  C   UNL     1       8.691  13.058  19.175  0.00  0.00     0.001 A 
HETATM   31  C   UNL     1       8.624  14.224  19.942  0.00  0.00     0.007 A 
ENDBRANCH  24  25
ENDBRANCH   8  24
TORSDOF 5
ENDMDL
MODEL 3
REMARK VINA RESULT:    -8.833      2.188      2.805
REMARK INTER + INTRA:         -12.095
REMARK INTER:                 -10.935
REMARK INTRA:                  -1.160
REMARK UNBOUND:                -0.939
REMARK  5 active torsions:
REMARK  status: ('A' for Active; 'I' for Inactive)
REMARK       I    between atoms: C_2  and  N_3 
REMARK    1  A    between atoms: C_2  and  C_12 
REMARK    2  A    between atoms: N_3  and  C_5 
REMARK    3  A    between atoms: C_13  and  O_14 
REMARK    4  A    between atoms: C_20  and  C_21 
REMARK    5  A    between atoms: C_21  and  C_22 
ROOT
HETATM    1  C   UNL     1       8.083  12.664  21.758  0.00  0.00     0.066 C 
HETATM    2  C   UNL     1       7.942  11.796  20.670  0.00  0.00     0.083 C 
HETATM    3  C   UNL     1       9.042  11.399  19.904  0.00  0.00     0.069 C 
HETATM    4  C   UNL     1      10.272  12.002  20.175  0.00  0.00     0.065 A 
HETATM    5  N   UNL     1      11.483  11.869  19.558  0.00  0.00    -0.277 N 
HETATM    6  H   UNL     1      11.714  11.269  18.776  0.00  0.00     0.189 HD
HETATM    7  N   UNL     1      12.430  12.690  20.021  0.00  0.00    -0.178 NA
HETATM    8  C   UNL     1      11.818  13.398  20.988  0.00  0.00     0.071 A 
HETATM    9  C   UNL     1      10.458  12.967  21.161  0.00  0.00     0.020 A 
HETATM   10  C   UNL     1       9.344  13.291  21.970  0.00  0.00     0.035 C 
ENDROOT
BRANCH   1  11
HETATM   11  C   UNL     1       6.962  13.082  22.663  0.00  0.00     0.260 C 
HETATM   12  O   UNL     1       6.307  12.138  23.114  0.00  0.00    -0.267 OA
HETATM   13  N   UNL     1       6.675  14.450  22.949  0.00  0.00    -0.318 N 
HETATM   14  C   UNL     1       7.206  15.568  22.154  0.00  0.00     0.159 C 
BRANCH  13  15
HETATM   15  C   UNL     1       5.688  14.796  23.969  0.00  0.00     0.037 A 
HETATM   16  C   UNL     1       4.360  15.101  23.633  0.00  0.00     0.030 A 
HETATM   17  C   UNL     1       3.424  15.515  24.594  0.00  0.00     0.009 A 
HETATM   18  C   UNL     1       3.782  15.624  25.935  0.00  0.00    -0.062 A 
HETATM   19  C   UNL     1       2.813  16.129  26.960  0.00  0.00     0.048 C 
HETATM   20  C   UNL     1       5.079  15.271  26.303  0.00  0.00     0.009 A 
HETATM   21  C   UNL     1       6.010  14.851  25.338  0.00  0.00     0.030 A 
ENDBRANCH  13  15
ENDBRANCH   1  11
BRANCH   2  22
HETATM   22  O   UNL     1       6.739  11.308  20.226  0.00  0.00    -0.360 OA
HETATM   23  H   UNL     1       6.385  10.697  20.897  0.00  0.00     0.217 HD
ENDBRANCH   2  22
BRANCH   8  24
HETATM   24  C   UNL     1      12.558  14.574  21.533  0.00  0.00     0.100 C 
BRANCH  24  25
HETATM   25  C   UNL     1      11.945  15.084  22.809  0.00  0.00    -0.052 A 
HETATM   26  C   UNL     1      12.126  14.344  23.984  0.00  0.00     0.014 A 
HETATM   27  C   UNL     1      11.348  14.588  25.120  0.00  0.00    -0.061 A 
HETATM   28  C   UNL     1      11.444  13.654  26.288  0.00  0.00     0.048 C 
HETATM   29  C   UNL     1      10.468  15.673  25.124  0.00  0.00     0.007 A 
HETATM   30  C   UNL     1      10.316  16.462  23.981  0.00  0.00     0.001 A 
HETATM   31  C   UNL     1      11.037  16.155  22.825  0.00  0.00     0.007 A 
ENDBRANCH  24  25
ENDBRANCH   8  24
TORSDOF 5
ENDMDL
MODEL 4
REMARK VINA RESULT:    -8.824      1.458      1.865
REMARK INTER + INTRA:         -12.084
REMARK INTER:                 -11.180
REMARK INTRA:                  -0.904
REMARK UNBOUND:                -0.939
REMARK  5 active torsions:
REMARK  status: ('A' for Active; 'I' for Inactive)
REMARK       I    between atoms: C_2  and  N_3 
REMARK    1  A    between atoms: C_2  and  C_12 
REMARK    2  A    between atoms: N_3  and  C_5 
REMARK    3  A    between atoms: C_13  and  O_14 
REMARK    4  A    between atoms: C_20  and  C_21 
REMARK    5  A    between atoms: C_21  and  C_22 
ROOT
HETATM    1  C   UNL     1       9.389  14.585  22.481  0.00  0.00     0.066 C 
HETATM    2  C   UNL     1       9.932  15.464  21.538  0.00  0.00     0.083 C 
HETATM    3  C   UNL     1      10.860  15.032  20.586  0.00  0.00     0.069 C 
HETATM    4  C   UNL     1      11.334  13.722  20.690  0.00  0.00     0.065 A 
HETATM    5  N   UNL     1      12.277  13.057  19.961  0.00  0.00    -0.277 N 
HETATM    6  H   UNL     1      12.806  13.407  19.171  0.00  0.00     0.189 HD
HETATM    7  N   UNL     1      12.558  11.831  20.411  0.00  0.00    -0.178 NA
HETATM    8  C   UNL     1      11.765  11.678  21.487  0.00  0.00     0.071 A 
HETATM    9  C   UNL     1      10.930  12.832  21.681  0.00  0.00     0.020 A 
HETATM   10  C   UNL     1       9.932  13.272  22.581  0.00  0.00     0.035 C 
ENDROOT
BRANCH   1  11
HETATM   11  C   UNL     1       8.342  14.959  23.489  0.00  0.00     0.260 C 
HETATM   12  O   UNL     1       8.740  15.746  24.353  0.00  0.00    -0.267 OA
HETATM   13  N   UNL     1       7.019  14.428  23.455  0.00  0.00    -0.318 N 
HETATM   14  C   UNL     1       6.646  13.243  22.666  0.00  0.00     0.159 C 
BRANCH  13  15
HETATM   15  C   UNL     1       5.992  14.953  24.352  0.00  0.00     0.037 A 
HETATM   16  C   UNL     1       5.993  14.660  25.723  0.00  0.00     0.030 A 
HETATM   17  C   UNL     1       4.967  15.091  26.580  0.00  0.00     0.009 A 
HETATM   18  C   UNL     1       3.906  15.849  26.092  0.00  0.00    -0.062 A 
HETATM   19  C   UNL     1       2.770  16.259  26.979  0.00  0.00     0.048 C 
HETATM   20  C   UNL     1       3.912  16.203  24.744  0.00  0.00     0.009 A 
HETATM   21  C   UNL     1       4.945  15.775  23.893  0.00  0.00     0.030 A 
ENDBRANCH  13  15
ENDBRANCH   1  11
BRANCH   2  22
HETATM   22  O   UNL     1       9.657  16.807  21.491  0.00  0.00    -0.360 OA
HETATM   23  H   UNL     1       9.406  17.041  20.579  0.00  0.00     0.217 HD
ENDBRANCH   2  22
BRANCH   8  24
HETATM   24  C   UNL     1      12.026  10.492  22.355  0.00  0.00     0.100 C 
BRANCH  24  25
HETATM   25  C   UNL     1      11.313  10.590  23.676  0.00  0.00    -0.052 A 
HETATM   26  C   UNL     1       9.998  10.116  23.766  0.00  0.00     0.014 A 
HETATM   27  C   UNL     1       9.184  10.445  24.854  0.00  0.00    -0.061 A 
HETATM   28  C   UNL     1       7.732  10.073  24.821  0.00  0.00     0.048 C 
HETATM   29  C   UNL     1       9.732  11.149  25.929  0.00  0.00     0.007 A 
HETATM   30  C   UNL     1      11.060  11.581  25.885  0.00  0.00     0.001 A 
HETATM   31  C   UNL     1      11.837  11.319  24.756  0.00  0.00     0.007 A 
ENDBRANCH  24  25
ENDBRANCH   8  24
TORSDOF 5
ENDMDL
MODEL 5
REMARK VINA RESULT:    -8.680      4.188      7.431
REMARK INTER + INTRA:         -11.903
REMARK INTER:                 -11.580
REMARK INTRA:                  -0.323
REMARK UNBOUND:                -0.939
REMARK  5 active torsions:
REMARK  status: ('A' for Active; 'I' for Inactive)
REMARK       I    between atoms: C_2  and  N_3 
REMARK    1  A    between atoms: C_2  and  C_12 
REMARK    2  A    between atoms: N_3  and  C_5 
REMARK    3  A    between atoms: C_13  and  O_14 
REMARK    4  A    between atoms: C_20  and  C_21 
REMARK    5  A    between atoms: C_21  and  C_22 
ROOT
HETATM    1  C   UNL     1       7.030  11.333  21.270  0.00  0.00     0.066 C 
HETATM    2  C   UNL     1       8.425  11.254  21.341  0.00  0.00     0.083 C 
HETATM    3  C   UNL     1       9.174  12.182  22.072  0.00  0.00     0.069 C 
HETATM    4  C   UNL     1       8.496  13.274  22.620  0.00  0.00     0.065 A 
HETATM    5  N   UNL     1       8.963  14.355  23.310  0.00  0.00    -0.277 N 
HETATM    6  H   UNL     1       9.921  14.553  23.572  0.00  0.00     0.189 HD
HETATM    7  N   UNL     1       8.033  15.271  23.595  0.00  0.00    -0.178 NA
HETATM    8  C   UNL     1       6.899  14.772  23.070  0.00  0.00     0.071 A 
HETATM    9  C   UNL     1       7.127  13.481  22.481  0.00  0.00     0.020 A 
HETATM   10  C   UNL     1       6.385  12.485  21.804  0.00  0.00     0.035 C 
ENDROOT
BRANCH   1  11
HETATM   11  C   UNL     1       6.157  10.339  20.563  0.00  0.00     0.260 C 
HETATM   12  O   UNL     1       6.173  10.448  19.334  0.00  0.00    -0.267 OA
HETATM   13  N   UNL     1       5.367   9.378  21.260  0.00  0.00    -0.318 N 
HETATM   14  C   UNL     1       5.067   9.471  22.697  0.00  0.00     0.159 C 
BRANCH  13  15
HETATM   15  C   UNL     1       4.671   8.325  20.524  0.00  0.00     0.037 A 
HETATM   16  C   UNL     1       4.891   8.115  19.155  0.00  0.00     0.030 A 
HETATM   17  C   UNL     1       4.170   7.162  18.419  0.00  0.00     0.009 A 
HETATM   18  C   UNL     1       3.206   6.369  19.037  0.00  0.00    -0.062 A 
HETATM   19  C   UNL     1       2.381   5.395  18.252  0.00  0.00     0.048 C 
HETATM   20  C   UNL     1       3.009   6.517  20.408  0.00  0.00     0.009 A 
HETATM   21  C   UNL     1       3.740   7.468  21.141  0.00  0.00     0.030 A 
ENDBRANCH  13  15
ENDBRANCH   1  11
BRANCH   2  22
HETATM   22  O   UNL     1       9.177  10.320  20.676  0.00  0.00    -0.360 OA
HETATM   23  H   UNL     1       8.816   9.436  20.867  0.00  0.00     0.217 HD
ENDBRANCH   2  22
BRANCH   8  24
HETATM   24  C   UNL     1       5.720  15.688  23.016  0.00  0.00     0.100 C 
BRANCH  24  25
HETATM   25  C   UNL     1       4.676  15.323  24.036  0.00  0.00    -0.052 A 
HETATM   26  C   UNL     1       3.480  14.742  23.594  0.00  0.00     0.014 A 
HETATM   27  C   UNL     1       2.364  14.659  24.432  0.00  0.00    -0.061 A 
HETATM   28  C   UNL     1       1.054  14.203  23.863  0.00  0.00     0.048 C 
HETATM   29  C   UNL     1       2.484  15.042  25.770  0.00  0.00     0.007 A 
HETATM   30  C   UNL     1       3.687  15.570  26.246  0.00  0.00     0.001 A 
HETATM   31  C   UNL     1       4.768  15.727  25.377  0.00  0.00     0.007 A 
ENDBRANCH  24  25
ENDBRANCH   8  24
TORSDOF 5
ENDMDL
MODEL 6
REMARK VINA RESULT:    -8.660      4.149      7.024
REMARK INTER + INTRA:         -11.877
REMARK INTER:                 -10.938
REMARK INTRA:                  -0.939
REMARK UNBOUND:                -0.939
REMARK  5 active torsions:
REMARK  status: ('A' for Active; 'I' for Inactive)
REMARK       I    between atoms: C_2  and  N_3 
REMARK    1  A    between atoms: C_2  and  C_12 
REMARK    2  A    between atoms: N_3  and  C_5 
REMARK    3  A    between atoms: C_13  and  O_14 
REMARK    4  A    between atoms: C_20  and  C_21 
REMARK    5  A    between atoms: C_21  and  C_22 
ROOT
HETATM    1  C   UNL     1       6.524  10.965  21.515  0.00  0.00     0.066 C 
HETATM    2  C   UNL     1       7.449  11.295  20.519  0.00  0.00     0.083 C 
HETATM    3  C   UNL     1       8.553  12.111  20.786  0.00  0.00     0.069 C 
HETATM    4  C   UNL     1       8.633  12.700  22.050  0.00  0.00     0.065 A 
HETATM    5  N   UNL     1       9.540  13.580  22.566  0.00  0.00    -0.277 N 
HETATM    6  H   UNL     1      10.358  13.961  22.107  0.00  0.00     0.189 HD
HETATM    7  N   UNL     1       9.244  14.021  23.791  0.00  0.00    -0.178 NA
HETATM    8  C   UNL     1       8.089  13.404  24.101  0.00  0.00     0.071 A 
HETATM    9  C   UNL     1       7.681  12.514  23.049  0.00  0.00     0.020 A 
HETATM   10  C   UNL     1       6.618  11.622  22.775  0.00  0.00     0.035 C 
ENDROOT
BRANCH   1  11
HETATM   11  C   UNL     1       5.355  10.045  21.321  0.00  0.00     0.260 C 
HETATM   12  O   UNL     1       4.329  10.617  20.941  0.00  0.00    -0.267 OA
HETATM   13  N   UNL     1       5.429   8.645  21.578  0.00  0.00    -0.318 N 
HETATM   14  C   UNL     1       6.512   8.024  22.356  0.00  0.00     0.159 C 
BRANCH  13  15
HETATM   15  C   UNL     1       4.319   7.770  21.209  0.00  0.00     0.037 A 
HETATM   16  C   UNL     1       4.213   7.217  19.924  0.00  0.00     0.030 A 
HETATM   17  C   UNL     1       3.110   6.442  19.533  0.00  0.00     0.009 A 
HETATM   18  C   UNL     1       2.074   6.178  20.425  0.00  0.00    -0.062 A 
HETATM   19  C   UNL     1       0.859   5.410  20.002  0.00  0.00     0.048 C 
HETATM   20  C   UNL     1       2.183   6.667  21.726  0.00  0.00     0.009 A 
HETATM   21  C   UNL     1       3.293   7.436  22.114  0.00  0.00     0.030 A 
ENDBRANCH  13  15
ENDBRANCH   1  11
BRANCH   2  22
HETATM   22  O   UNL     1       7.337  10.908  19.208  0.00  0.00    -0.360 OA
HETATM   23  H   UNL     1       6.870  11.608  18.716  0.00  0.00     0.217 HD
ENDBRANCH   2  22
BRANCH   8  24
HETATM   24  C   UNL     1       7.375  13.883  25.322  0.00  0.00     0.100 C 
BRANCH  24  25
HETATM   25  C   UNL     1       6.282  14.862  24.990  0.00  0.00    -0.052 A 
HETATM   26  C   UNL     1       5.336  15.172  25.975  0.00  0.00     0.014 A 
HETATM   27  C   UNL     1       4.142  15.824  25.652  0.00  0.00    -0.061 A 
HETATM   28  C   UNL     1       3.080  15.969  26.700  0.00  0.00     0.048 C 
HETATM   29  C   UNL     1       3.949  16.287  24.348  0.00  0.00     0.007 A 
HETATM   30  C   UNL     1       4.907  16.039  23.362  0.00  0.00     0.001 A 
HETATM   31  C   UNL     1       6.057  15.313  23.680  0.00  0.00     0.007 A 
ENDBRANCH  24  25
ENDBRANCH   8  24
TORSDOF 5
ENDMDL
MODEL 7
REMARK VINA RESULT:    -8.659      3.503      7.898
REMARK INTER + INTRA:         -11.876
REMARK INTER:                 -10.424
REMARK INTRA:                  -1.452
REMARK UNBOUND:                -0.939
REMARK  5 active torsions:
REMARK  status: ('A' for Active; 'I' for Inactive)
REMARK       I    between atoms: C_2  and  N_3 
REMARK    1  A    between atoms: C_2  and  C_12 
REMARK    2  A    between atoms: N_3  and  C_5 
REMARK    3  A    between atoms: C_13  and  O_14 
REMARK    4  A    between atoms: C_20  and  C_21 
REMARK    5  A    between atoms: C_21  and  C_22 
ROOT
HETATM    1  C   UNL     1       5.151  11.010  23.433  0.00  0.00     0.066 C 
HETATM    2  C   UNL     1       5.078   9.800  24.130  0.00  0.00     0.083 C 
HETATM    3  C   UNL     1       3.866   9.318  24.634  0.00  0.00     0.069 C 
HETATM    4  C   UNL     1       2.747  10.149  24.536  0.00  0.00     0.065 A 
HETATM    5  N   UNL     1       1.471   9.980  24.992  0.00  0.00    -0.277 N 
HETATM    6  H   UNL     1       1.093   9.180  25.485  0.00  0.00     0.189 HD
HETATM    7  N   UNL     1       0.678  11.040  24.813  0.00  0.00    -0.178 NA
HETATM    8  C   UNL     1       1.464  11.951  24.210  0.00  0.00     0.071 A 
HETATM    9  C   UNL     1       2.777  11.418  23.966  0.00  0.00     0.020 A 
HETATM   10  C   UNL     1       3.998  11.846  23.396  0.00  0.00     0.035 C 
ENDROOT
BRANCH   1  11
HETATM   11  C   UNL     1       6.400  11.558  22.808  0.00  0.00     0.260 C 
HETATM   12  O   UNL     1       6.769  10.940  21.806  0.00  0.00    -0.267 OA
HETATM   13  N   UNL     1       7.101  12.677  23.348  0.00  0.00    -0.318 N 
HETATM   14  C   UNL     1       6.881  13.185  24.711  0.00  0.00     0.159 C 
BRANCH  13  15
HETATM   15  C   UNL     1       8.210  13.277  22.609  0.00  0.00     0.037 A 
HETATM   16  C   UNL     1       9.544  12.948  22.889  0.00  0.00     0.030 A 
HETATM   17  C   UNL     1      10.620  13.577  22.243  0.00  0.00     0.009 A 
HETATM   18  C   UNL     1      10.395  14.553  21.275  0.00  0.00    -0.062 A 
HETATM   19  C   UNL     1      11.532  15.281  20.626  0.00  0.00     0.048 C 
HETATM   20  C   UNL     1       9.078  14.856  20.937  0.00  0.00     0.009 A 
HETATM   21  C   UNL     1       8.005  14.218  21.583  0.00  0.00     0.030 A 
ENDBRANCH  13  15
ENDBRANCH   1  11
BRANCH   2  22
HETATM   22  O   UNL     1       6.164   9.018  24.429  0.00  0.00    -0.360 OA
HETATM   23  H   UNL     1       5.879   8.305  25.028  0.00  0.00     0.217 HD
ENDBRANCH   2  22
BRANCH   8  24
HETATM   24  C   UNL     1       0.923  13.338  24.096  0.00  0.00     0.100 C 
BRANCH  24  25
HETATM   25  C   UNL     1       1.873  14.362  24.655  0.00  0.00    -0.052 A 
HETATM   26  C   UNL     1       2.830  14.926  23.803  0.00  0.00     0.014 A 
HETATM   27  C   UNL     1       3.919  15.641  24.311  0.00  0.00    -0.061 A 
HETATM   28  C   UNL     1       5.015  16.066  23.380  0.00  0.00     0.048 C 
HETATM   29  C   UNL     1       3.983  15.906  25.681  0.00  0.00     0.007 A 
HETATM   30  C   UNL     1       3.006  15.401  26.543  0.00  0.00     0.001 A 
HETATM   31  C   UNL     1       1.969  14.617  26.033  0.00  0.00     0.007 A 
ENDBRANCH  24  25
ENDBRANCH   8  24
TORSDOF 5
ENDMDL
MODEL 8
REMARK VINA RESULT:    -8.604      3.738      8.358
REMARK INTER + INTRA:         -11.807
REMARK INTER:                 -10.269
REMARK INTRA:                  -1.538
REMARK UNBOUND:                -0.939
REMARK  5 active torsions:
REMARK  status: ('A' for Active; 'I' for Inactive)
REMARK       I    between atoms: C_2  and  N_3 
REMARK    1  A    between atoms: C_2  and  C_12 
REMARK    2  A    between atoms: N_3  and  C_5 
REMARK    3  A    between atoms: C_13  and  O_14 
REMARK    4  A    between atoms: C_20  and  C_21 
REMARK    5  A    between atoms: C_21  and  C_22 
ROOT
HETATM    1  C   UNL     1       4.054  10.489  24.178  0.00  0.00     0.066 C 
HETATM    2  C   UNL     1       3.227   9.600  24.871  0.00  0.00     0.083 C 
HETATM    3  C   UNL     1       1.863   9.853  25.044  0.00  0.00     0.069 C 
HETATM    4  C   UNL     1       1.375  11.091  24.619  0.00  0.00     0.065 A 
HETATM    5  N   UNL     1       0.128  11.637  24.718  0.00  0.00    -0.277 N 
HETATM    6  H   UNL     1      -0.701  11.214  25.118  0.00  0.00     0.189 HD
HETATM    7  N   UNL     1       0.044  12.901  24.295  0.00  0.00    -0.178 NA
HETATM    8  C   UNL     1       1.293  13.205  23.896  0.00  0.00     0.071 A 
HETATM    9  C   UNL     1       2.169  12.074  24.035  0.00  0.00     0.020 A 
HETATM   10  C   UNL     1       3.527  11.758  23.802  0.00  0.00     0.035 C 
ENDROOT
BRANCH   1  11
HETATM   11  C   UNL     1       5.509  10.254  23.896  0.00  0.00     0.260 C 
HETATM   12  O   UNL     1       5.724   9.298  23.146  0.00  0.00    -0.267 OA
HETATM   13  N   UNL     1       6.541  11.054  24.469  0.00  0.00    -0.318 N 
HETATM   14  C   UNL     1       6.326  11.945  25.619  0.00  0.00     0.159 C 
BRANCH  13  15
HETATM   15  C   UNL     1       7.926  10.894  24.029  0.00  0.00     0.037 A 
HETATM   16  C   UNL     1       8.829  10.076  24.724  0.00  0.00     0.030 A 
HETATM   17  C   UNL     1      10.181   9.979  24.360  0.00  0.00     0.009 A 
HETATM   18  C   UNL     1      10.676  10.690  23.269  0.00  0.00    -0.062 A 
HETATM   19  C   UNL     1      12.130  10.649  22.909  0.00  0.00     0.048 C 
HETATM   20  C   UNL     1       9.786  11.464  22.527  0.00  0.00     0.009 A 
HETATM   21  C   UNL     1       8.432  11.552  22.893  0.00  0.00     0.030 A 
ENDBRANCH  13  15
ENDBRANCH   1  11
BRANCH   2  22
HETATM   22  O   UNL     1       3.669   8.453  25.479  0.00  0.00    -0.360 OA
HETATM   23  H   UNL     1       2.937   8.073  25.998  0.00  0.00     0.217 HD
ENDBRANCH   2  22
BRANCH   8  24
HETATM   24  C   UNL     1       1.574  14.640  23.592  0.00  0.00     0.100 C 
BRANCH  24  25
HETATM   25  C   UNL     1       2.869  15.103  24.202  0.00  0.00    -0.052 A 
HETATM   26  C   UNL     1       3.998  15.208  23.380  0.00  0.00     0.014 A 
HETATM   27  C   UNL     1       5.279  15.335  23.925  0.00  0.00    -0.061 A 
HETATM   28  C   UNL     1       6.472  15.257  23.020  0.00  0.00     0.048 C 
HETATM   29  C   UNL     1       5.422  15.491  25.306  0.00  0.00     0.007 A 
HETATM   30  C   UNL     1       4.301  15.448  26.140  0.00  0.00     0.001 A 
HETATM   31  C   UNL     1       3.035  15.236  25.590  0.00  0.00     0.007 A 
ENDBRANCH  24  25
ENDBRANCH   8  24
TORSDOF 5
ENDMDL
MODEL 9
REMARK VINA RESULT:    -8.508      2.401      3.905
REMARK INTER + INTRA:         -11.686
REMARK INTER:                 -10.304
REMARK INTRA:                  -1.382
REMARK UNBOUND:                -0.939
REMARK  5 active torsions:
REMARK  status: ('A' for Active; 'I' for Inactive)
REMARK       I    between atoms: C_2  and  N_3 
REMARK    1  A    between atoms: C_2  and  C_12 
REMARK    2  A    between atoms: N_3  and  C_5 
REMARK    3  A    between atoms: C_13  and  O_14 
REMARK    4  A    between atoms: C_20  and  C_21 
REMARK    5  A    between atoms: C_21  and  C_22 
ROOT
HETATM    1  C   UNL     1       7.535  11.722  23.397  0.00  0.00     0.066 C 
HETATM    2  C   UNL     1       7.455  10.348  23.149  0.00  0.00     0.083 C 
HETATM    3  C   UNL     1       8.399   9.693  22.352  0.00  0.00     0.069 C 
HETATM    4  C   UNL     1       9.351  10.477  21.697  0.00  0.00     0.065 A 
HETATM    5  N   UNL     1      10.334  10.132  20.815  0.00  0.00    -0.277 N 
HETATM    6  H   UNL     1      10.567   9.204  20.484  0.00  0.00     0.189 HD
HETATM    7  N   UNL     1      10.999  11.168  20.298  0.00  0.00    -0.178 NA
HETATM    8  C   UNL     1      10.431  12.249  20.864  0.00  0.00     0.071 A 
HETATM    9  C   UNL     1       9.409  11.864  21.799  0.00  0.00     0.020 A 
HETATM   10  C   UNL     1       8.492  12.490  22.674  0.00  0.00     0.035 C 
ENDROOT
BRANCH   1  11
HETATM   11  C   UNL     1       6.600  12.481  24.293  0.00  0.00     0.260 C 
HETATM   12  O   UNL     1       6.982  12.555  25.464  0.00  0.00    -0.267 OA
HETATM   13  N   UNL     1       5.373  13.038  23.827  0.00  0.00    -0.318 N 
HETATM   14  C   UNL     1       4.748  12.656  22.551  0.00  0.00     0.159 C 
BRANCH  13  15
HETATM   15  C   UNL     1       4.585  13.911  24.693  0.00  0.00     0.037 A 
HETATM   16  C   UNL     1       4.917  15.262  24.873  0.00  0.00     0.030 A 
HETATM   17  C   UNL     1       4.219  16.091  25.766  0.00  0.00     0.009 A 
HETATM   18  C   UNL     1       3.145  15.596  26.502  0.00  0.00    -0.062 A 
HETATM   19  C   UNL     1       2.433  16.448  27.508  0.00  0.00     0.048 C 
HETATM   20  C   UNL     1       2.759  14.273  26.298  0.00  0.00     0.009 A 
HETATM   21  C   UNL     1       3.458  13.450  25.399  0.00  0.00     0.030 A 
ENDBRANCH  13  15
ENDBRANCH   1  11
BRANCH   2  22
HETATM   22  O   UNL     1       6.444   9.541  23.605  0.00  0.00    -0.360 OA
HETATM   23  H   UNL     1       6.739   9.105  24.425  0.00  0.00     0.217 HD
ENDBRANCH   2  22
BRANCH   8  24
HETATM   24  C   UNL     1      10.802  13.580  20.299  0.00  0.00     0.100 C 
BRANCH  24  25
HETATM   25  C   UNL     1      11.001  14.614  21.374  0.00  0.00    -0.052 A 
HETATM   26  C   UNL     1      11.804  14.292  22.475  0.00  0.00     0.014 A 
HETATM   27  C   UNL     1      11.788  15.073  23.634  0.00  0.00    -0.061 A 
HETATM   28  C   UNL     1      12.518  14.591  24.852  0.00  0.00     0.048 C 
HETATM   29  C   UNL     1      11.058  16.264  23.645  0.00  0.00     0.007 A 
HETATM   30  C   UNL     1      10.296  16.634  22.535  0.00  0.00     0.001 A 
HETATM   31  C   UNL     1      10.254  15.802  21.414  0.00  0.00     0.007 A 
ENDBRANCH  24  25
ENDBRANCH   8  24
TORSDOF 5
ENDMDL
