REMARK  7 active torsions:
REMARK  status: ('A' for Active; 'I' for Inactive)
REMARK    1  A    between atoms: C_7  and  N_8 
REMARK    2  A    between atoms: C_14  and  C_15 
REMARK    3  A    between atoms: C_16  and  O_17 
REMARK    4  A    between atoms: C_19  and  O_20 
REMARK    5  A    between atoms: C_22  and  C_23 
REMARK       I    between atoms: C_23  and  N_25 
REMARK    6  A    between atoms: N_25  and  C_27 
REMARK    7  A    between atoms: C_27  and  C_28 
ROOT
HETATM    1  C   UNL     1      -0.095  -1.216  -0.053  0.00  0.00     0.046 A 
HETATM    2  C   UNL     1      -1.360  -1.510  -0.618  0.00  0.00     0.082 A 
HETATM    3  C   UNL     1      -2.316  -0.523  -0.845  0.00  0.00     0.075 A 
HETATM    4  C   UNL     1      -2.027   0.801  -0.532  0.00  0.00     0.084 A 
HETATM    5  C   UNL     1       0.163   0.127   0.276  0.00  0.00     0.038 A 
HETATM    6  C   UNL     1      -0.784   1.150   0.025  0.00  0.00     0.066 A 
ENDROOT
BRANCH   1   7
HETATM    7  C   UNL     1       0.921  -2.324  -0.073  0.00  0.00     0.172 A 
HETATM    8  N   UNL     1       1.901  -2.643   0.838  0.00  0.00    -0.241 N 
HETATM    9  C   UNL     1       2.465  -3.820   0.370  0.00  0.00     0.349 A 
HETATM   10  O   UNL     1       3.442  -4.438   0.774  0.00  0.00    -0.245 OA
HETATM   11  N   UNL     1       1.760  -4.147  -0.770  0.00  0.00    -0.226 N 
HETATM   12  H   UNL     1       1.981  -4.915  -1.392  0.00  0.00     0.194 HD
HETATM   13  N   UNL     1       0.826  -3.210  -1.041  0.00  0.00    -0.151 NA
BRANCH   8  14
HETATM   14  C   UNL     1       2.438  -2.012   1.973  0.00  0.00     0.084 A 
HETATM   15  C   UNL     1       2.699  -2.765   3.131  0.00  0.00     0.143 A 
HETATM   16  F   UNL     1       2.245  -4.023   3.237  0.00  0.00    -0.204 F 
HETATM   17  C   UNL     1       3.418  -2.239   4.202  0.00  0.00     0.044 A 
HETATM   18  C   UNL     1       3.858  -0.919   4.152  0.00  0.00     0.003 A 
HETATM   19  C   UNL     1       3.606  -0.153   3.016  0.00  0.00     0.002 A 
HETATM   20  C   UNL     1       2.941  -0.713   1.918  0.00  0.00     0.033 A 
ENDBRANCH   8  14
ENDBRANCH   1   7
BRANCH   2  21
HETATM   21  O   UNL     1      -1.743  -2.766  -1.025  0.00  0.00    -0.360 OA
HETATM   22  H   UNL     1      -0.939  -3.324  -1.111  0.00  0.00     0.217 HD
ENDBRANCH   2  21
BRANCH   6  23
HETATM   23  C   UNL     1      -0.347   2.582  -0.048  0.00  0.00     0.256 C 
HETATM   24  O   UNL     1      -0.594   3.158  -1.111  0.00  0.00    -0.267 OA
HETATM   25  N   UNL     1       0.391   3.223   0.956  0.00  0.00    -0.346 N 
HETATM   26  C   UNL     1       0.876   4.572   0.662  0.00  0.00     0.153 C 
BRANCH  25  27
HETATM   27  C   UNL     1       0.580   2.777   2.335  0.00  0.00     0.190 C 
BRANCH  27  28
HETATM   28  C   UNL     1      -0.520   3.288   3.196  0.00  0.00     0.070 A 
HETATM   29  O   UNL     1      -0.171   3.730   4.442  0.00  0.00    -0.325 OA
HETATM   30  C   UNL     1      -1.320   4.100   5.067  0.00  0.00     0.142 A 
HETATM   31  C   UNL     1      -2.402   3.904   4.243  0.00  0.00     0.027 A 
HETATM   32  C   UNL     1      -1.885   3.404   3.025  0.00  0.00     0.036 A 
ENDBRANCH  27  28
ENDBRANCH  25  27
ENDBRANCH   6  23
BRANCH   4  33
HETATM   33  O   UNL     1      -2.975   1.750  -0.813  0.00  0.00    -0.360 OA
HETATM   34  H   UNL     1      -3.449   1.483  -1.621  0.00  0.00     0.217 HD
ENDBRANCH   4  33
TORSDOF 7
