MODEL 1
REMARK VINA RESULT:    -7.206      0.000      0.000
REMARK INTER + INTRA:          -9.477
REMARK INTER:                  -8.407
REMARK INTRA:                  -1.070
REMARK UNBOUND:                -1.008
REMARK  4 active torsions:
REMARK  status: ('A' for Active; 'I' for Inactive)
REMARK    1  A    between atoms: O_1  and  C_2 
REMARK    2  A    between atoms: C_4  and  O_5 
REMARK    3  A    between atoms: C_6  and  C_10 
REMARK    4  A    between atoms: N_16  and  C_17 
ROOT
HETATM    1  C   UNL     1       5.004   7.279  19.272  0.00  0.00     0.172 A 
HETATM    2  N   UNL     1       5.867   8.066  18.684  0.00  0.00    -0.151 NA
HETATM    3  N   UNL     1       6.973   8.039  19.473  0.00  0.00    -0.226 N 
HETATM    4  H   UNL     1       7.865   8.417  19.180  0.00  0.00     0.194 HD
HETATM    5  C   UNL     1       6.788   7.187  20.551  0.00  0.00     0.349 A 
HETATM    6  O   UNL     1       7.657   6.872  21.347  0.00  0.00    -0.245 OA
HETATM    7  N   UNL     1       5.480   6.740  20.448  0.00  0.00    -0.241 N 
ENDROOT
BRANCH   1   8
HETATM    8  C   UNL     1       3.630   7.071  18.723  0.00  0.00     0.047 C 
HETATM    9  C   UNL     1       2.737   8.153  18.597  0.00  0.00     0.082 C 
HETATM   10  C   UNL     1       1.479   7.990  18.010  0.00  0.00     0.075 C 
HETATM   11  C   UNL     1       1.100   6.740  17.531  0.00  0.00     0.085 C 
HETATM   12  C   UNL     1       1.941   5.640  17.712  0.00  0.00     0.040 C 
HETATM   13  C   UNL     1       3.180   5.799  18.346  0.00  0.00     0.039 C 
HETATM   14  I   UNL     1       1.439   3.741  16.993  0.00  0.00    -0.042 I 
BRANCH   9  15
HETATM   15  O   UNL     1       3.085   9.409  19.014  0.00  0.00    -0.360 OA
HETATM   16  H   UNL     1       2.784   9.555  19.925  0.00  0.00     0.217 HD
ENDBRANCH   9  15
BRANCH  11  17
HETATM   17  O   UNL     1      -0.094   6.602  16.882  0.00  0.00    -0.359 OA
HETATM   18  H   UNL     1      -0.559   7.455  16.867  0.00  0.00     0.217 HD
ENDBRANCH  11  17
ENDBRANCH   1   8
BRANCH   7  19
HETATM   19  C   UNL     1       5.000   5.733  21.308  0.00  0.00     0.084 A 
HETATM   20  C   UNL     1       5.085   4.372  21.001  0.00  0.00     0.143 A 
HETATM   21  F   UNL     1       5.638   3.965  19.850  0.00  0.00    -0.204 F 
HETATM   22  C   UNL     1       4.652   3.403  21.908  0.00  0.00     0.044 A 
HETATM   23  C   UNL     1       4.123   3.789  23.137  0.00  0.00     0.003 A 
HETATM   24  C   UNL     1       4.025   5.139  23.462  0.00  0.00     0.002 A 
HETATM   25  C   UNL     1       4.471   6.103  22.555  0.00  0.00     0.033 A 
ENDBRANCH   7  19
TORSDOF 4
ENDMDL
MODEL 2
REMARK VINA RESULT:    -7.182      2.386      4.550
REMARK INTER + INTRA:          -9.449
REMARK INTER:                  -8.352
REMARK INTRA:                  -1.097
REMARK UNBOUND:                -1.008
REMARK  4 active torsions:
REMARK  status: ('A' for Active; 'I' for Inactive)
REMARK    1  A    between atoms: O_1  and  C_2 
REMARK    2  A    between atoms: C_4  and  O_5 
REMARK    3  A    between atoms: C_6  and  C_10 
REMARK    4  A    between atoms: N_16  and  C_17 
ROOT
HETATM    1  C   UNL     1       5.769   6.465  20.736  0.00  0.00     0.172 A 
HETATM    2  N   UNL     1       6.937   6.734  21.259  0.00  0.00    -0.151 NA
HETATM    3  N   UNL     1       7.488   7.672  20.443  0.00  0.00    -0.226 N 
HETATM    4  H   UNL     1       8.317   8.196  20.693  0.00  0.00     0.194 HD
HETATM    5  C   UNL     1       6.617   8.004  19.417  0.00  0.00     0.349 A 
HETATM    6  O   UNL     1       6.798   8.907  18.617  0.00  0.00    -0.245 OA
HETATM    7  N   UNL     1       5.521   7.171  19.578  0.00  0.00    -0.241 N 
ENDROOT
BRANCH   1   8
HETATM    8  C   UNL     1       4.861   5.440  21.331  0.00  0.00     0.047 C 
HETATM    9  C   UNL     1       4.213   5.681  22.558  0.00  0.00     0.082 C 
HETATM   10  C   UNL     1       3.297   4.767  23.087  0.00  0.00     0.075 C 
HETATM   11  C   UNL     1       3.010   3.598  22.388  0.00  0.00     0.085 C 
HETATM   12  C   UNL     1       3.695   3.307  21.206  0.00  0.00     0.040 C 
HETATM   13  C   UNL     1       4.648   4.204  20.706  0.00  0.00     0.039 C 
HETATM   14  I   UNL     1       3.290   1.580  20.097  0.00  0.00    -0.042 I 
BRANCH   9  15
HETATM   15  O   UNL     1       4.432   6.836  23.258  0.00  0.00    -0.360 OA
HETATM   16  H   UNL     1       4.030   7.589  22.797  0.00  0.00     0.217 HD
ENDBRANCH   9  15
BRANCH  11  17
HETATM   17  O   UNL     1       2.053   2.748  22.864  0.00  0.00    -0.359 OA
HETATM   18  H   UNL     1       1.965   2.859  23.825  0.00  0.00     0.217 HD
ENDBRANCH  11  17
ENDBRANCH   1   8
BRANCH   7  19
HETATM   19  C   UNL     1       4.371   7.345  18.786  0.00  0.00     0.084 A 
HETATM   20  C   UNL     1       3.984   6.431  17.802  0.00  0.00     0.143 A 
HETATM   21  F   UNL     1       4.712   5.329  17.569  0.00  0.00    -0.204 F 
HETATM   22  C   UNL     1       2.803   6.610  17.080  0.00  0.00     0.044 A 
HETATM   23  C   UNL     1       1.993   7.714  17.333  0.00  0.00     0.003 A 
HETATM   24  C   UNL     1       2.362   8.640  18.306  0.00  0.00     0.002 A 
HETATM   25  C   UNL     1       3.538   8.449  19.034  0.00  0.00     0.033 A 
ENDBRANCH   7  19
TORSDOF 4
ENDMDL
MODEL 3
REMARK VINA RESULT:    -6.890      2.811      5.043
REMARK INTER + INTRA:          -9.106
REMARK INTER:                  -8.082
REMARK INTRA:                  -1.024
REMARK UNBOUND:                -1.008
REMARK  4 active torsions:
REMARK  status: ('A' for Active; 'I' for Inactive)
REMARK    1  A    between atoms: O_1  and  C_2 
REMARK    2  A    between atoms: C_4  and  O_5 
REMARK    3  A    between atoms: C_6  and  C_10 
REMARK    4  A    between atoms: N_16  and  C_17 
ROOT
HETATM    1  C   UNL     1       5.759   6.827  20.807  0.00  0.00     0.172 A 
HETATM    2  N   UNL     1       6.969   7.054  21.248  0.00  0.00    -0.151 NA
HETATM    3  N   UNL     1       7.552   7.842  20.307  0.00  0.00    -0.226 N 
HETATM    4  H   UNL     1       8.431   8.320  20.460  0.00  0.00     0.194 HD
HETATM    5  C   UNL     1       6.662   8.127  19.283  0.00  0.00     0.349 A 
HETATM    6  O   UNL     1       6.874   8.913  18.375  0.00  0.00    -0.245 OA
HETATM    7  N   UNL     1       5.512   7.413  19.584  0.00  0.00    -0.241 N 
ENDROOT
BRANCH   1   8
HETATM    8  C   UNL     1       4.802   5.956  21.554  0.00  0.00     0.047 C 
HETATM    9  C   UNL     1       4.663   4.595  21.223  0.00  0.00     0.082 C 
HETATM   10  C   UNL     1       3.833   3.750  21.965  0.00  0.00     0.075 C 
HETATM   11  C   UNL     1       3.135   4.256  23.058  0.00  0.00     0.085 C 
HETATM   12  C   UNL     1       3.204   5.617  23.358  0.00  0.00     0.040 C 
HETATM   13  C   UNL     1       3.999   6.471  22.581  0.00  0.00     0.039 C 
HETATM   14  I   UNL     1       2.200   6.434  25.001  0.00  0.00    -0.042 I 
BRANCH   9  15
HETATM   15  O   UNL     1       5.362   4.044  20.184  0.00  0.00    -0.360 OA
HETATM   16  H   UNL     1       6.314   4.070  20.369  0.00  0.00     0.217 HD
ENDBRANCH   9  15
BRANCH  11  17
HETATM   17  O   UNL     1       2.392   3.410  23.832  0.00  0.00    -0.359 OA
HETATM   18  H   UNL     1       1.543   3.229  23.396  0.00  0.00     0.217 HD
ENDBRANCH  11  17
ENDBRANCH   1   8
BRANCH   7  19
HETATM   19  C   UNL     1       4.342   7.591  18.821  0.00  0.00     0.084 A 
HETATM   20  C   UNL     1       3.916   6.669  17.862  0.00  0.00     0.143 A 
HETATM   21  F   UNL     1       4.623   5.554  17.625  0.00  0.00    -0.204 F 
HETATM   22  C   UNL     1       2.718   6.853  17.171  0.00  0.00     0.044 A 
HETATM   23  C   UNL     1       1.930   7.972  17.431  0.00  0.00     0.003 A 
HETATM   24  C   UNL     1       2.338   8.906  18.379  0.00  0.00     0.002 A 
HETATM   25  C   UNL     1       3.531   8.710  19.077  0.00  0.00     0.033 A 
ENDBRANCH   7  19
TORSDOF 4
ENDMDL
MODEL 4
REMARK VINA RESULT:    -6.887      7.899      9.585
REMARK INTER + INTRA:          -9.102
REMARK INTER:                  -8.001
REMARK INTRA:                  -1.101
REMARK UNBOUND:                -1.008
REMARK  4 active torsions:
REMARK  status: ('A' for Active; 'I' for Inactive)
REMARK    1  A    between atoms: O_1  and  C_2 
REMARK    2  A    between atoms: C_4  and  O_5 
REMARK    3  A    between atoms: C_6  and  C_10 
REMARK    4  A    between atoms: N_16  and  C_17 
ROOT
HETATM    1  C   UNL     1       0.222   9.369  27.047  0.00  0.00     0.172 A 
HETATM    2  N   UNL     1       0.238   8.886  28.262  0.00  0.00    -0.151 NA
HETATM    3  N   UNL     1      -0.682   9.613  28.949  0.00  0.00    -0.226 N 
HETATM    4  H   UNL     1      -1.011   9.351  29.870  0.00  0.00     0.194 HD
HETATM    5  C   UNL     1      -1.295  10.540  28.120  0.00  0.00     0.349 A 
HETATM    6  O   UNL     1      -2.246  11.235  28.438  0.00  0.00    -0.245 OA
HETATM    7  N   UNL     1      -0.660  10.417  26.895  0.00  0.00    -0.241 N 
ENDROOT
BRANCH   1   8
HETATM    8  C   UNL     1       1.135   8.849  25.985  0.00  0.00     0.047 C 
HETATM    9  C   UNL     1       1.099   7.493  25.608  0.00  0.00     0.082 C 
HETATM   10  C   UNL     1       1.888   7.010  24.561  0.00  0.00     0.075 C 
HETATM   11  C   UNL     1       2.721   7.884  23.867  0.00  0.00     0.085 C 
HETATM   12  C   UNL     1       2.825   9.216  24.272  0.00  0.00     0.040 C 
HETATM   13  C   UNL     1       2.069   9.684  25.355  0.00  0.00     0.039 C 
HETATM   14  I   UNL     1       4.039  10.583  23.256  0.00  0.00    -0.042 I 
BRANCH   9  15
HETATM   15  O   UNL     1       0.264   6.608  26.233  0.00  0.00    -0.360 OA
HETATM   16  H   UNL     1       0.390   6.649  27.195  0.00  0.00     0.217 HD
ENDBRANCH   9  15
BRANCH  11  17
HETATM   17  O   UNL     1       3.427   7.427  22.790  0.00  0.00    -0.359 OA
HETATM   18  H   UNL     1       4.282   7.073  23.085  0.00  0.00     0.217 HD
ENDBRANCH  11  17
ENDBRANCH   1   8
BRANCH   7  19
HETATM   19  C   UNL     1      -1.139  11.115  25.770  0.00  0.00     0.084 A 
HETATM   20  C   UNL     1      -0.514  12.259  25.266  0.00  0.00     0.143 A 
HETATM   21  F   UNL     1       0.590  12.747  25.849  0.00  0.00    -0.204 F 
HETATM   22  C   UNL     1      -0.986  12.886  24.112  0.00  0.00     0.044 A 
HETATM   23  C   UNL     1      -2.098  12.374  23.448  0.00  0.00     0.003 A 
HETATM   24  C   UNL     1      -2.739  11.238  23.935  0.00  0.00     0.002 A 
HETATM   25  C   UNL     1      -2.254  10.608  25.083  0.00  0.00     0.033 A 
ENDBRANCH   7  19
TORSDOF 4
ENDMDL
MODEL 5
REMARK VINA RESULT:    -6.621      8.328     10.058
REMARK INTER + INTRA:          -8.790
REMARK INTER:                  -8.322
REMARK INTRA:                  -0.468
REMARK UNBOUND:                -1.008
REMARK  4 active torsions:
REMARK  status: ('A' for Active; 'I' for Inactive)
REMARK    1  A    between atoms: O_1  and  C_2 
REMARK    2  A    between atoms: C_4  and  O_5 
REMARK    3  A    between atoms: C_6  and  C_10 
REMARK    4  A    between atoms: N_16  and  C_17 
ROOT
HETATM    1  C   UNL     1      -1.418  10.421  25.893  0.00  0.00     0.172 A 
HETATM    2  N   UNL     1      -2.694  10.612  25.684  0.00  0.00    -0.151 NA
HETATM    3  N   UNL     1      -2.771  11.250  24.487  0.00  0.00    -0.226 N 
HETATM    4  H   UNL     1      -3.642  11.373  23.986  0.00  0.00     0.194 HD
HETATM    5  C   UNL     1      -1.509  11.421  23.939  0.00  0.00     0.349 A 
HETATM    6  O   UNL     1      -1.289  11.847  22.817  0.00  0.00    -0.245 OA
HETATM    7  N   UNL     1      -0.625  10.932  24.887  0.00  0.00    -0.241 N 
ENDROOT
BRANCH   1   8
HETATM    8  C   UNL     1      -0.915   9.771  27.141  0.00  0.00     0.047 C 
HETATM    9  C   UNL     1      -0.961  10.453  28.372  0.00  0.00     0.082 C 
HETATM   10  C   UNL     1      -0.570   9.830  29.560  0.00  0.00     0.075 C 
HETATM   11  C   UNL     1      -0.137   8.507  29.534  0.00  0.00     0.085 C 
HETATM   12  C   UNL     1      -0.017   7.838  28.315  0.00  0.00     0.040 C 
HETATM   13  C   UNL     1      -0.362   8.484  27.120  0.00  0.00     0.039 C 
HETATM   14  I   UNL     1       0.605   5.844  28.211  0.00  0.00    -0.042 I 
BRANCH   9  15
HETATM   15  O   UNL     1      -1.421  11.739  28.451  0.00  0.00    -0.360 OA
HETATM   16  H   UNL     1      -1.685  11.945  29.362  0.00  0.00     0.217 HD
ENDBRANCH   9  15
BRANCH  11  17
HETATM   17  O   UNL     1       0.162   7.874  30.707  0.00  0.00    -0.359 OA
HETATM   18  H   UNL     1       1.009   7.405  30.619  0.00  0.00     0.217 HD
ENDBRANCH  11  17
ENDBRANCH   1   8
BRANCH   7  19
HETATM   19  C   UNL     1       0.747  10.816  24.592  0.00  0.00     0.084 A 
HETATM   20  C   UNL     1       1.569  11.923  24.367  0.00  0.00     0.143 A 
HETATM   21  F   UNL     1       1.071  13.167  24.425  0.00  0.00    -0.204 F 
HETATM   22  C   UNL     1       2.937  11.768  24.137  0.00  0.00     0.044 A 
HETATM   23  C   UNL     1       3.499  10.493  24.125  0.00  0.00     0.003 A 
HETATM   24  C   UNL     1       2.697   9.376  24.342  0.00  0.00     0.002 A 
HETATM   25  C   UNL     1       1.332   9.539  24.584  0.00  0.00     0.033 A 
ENDBRANCH   7  19
TORSDOF 4
ENDMDL
MODEL 6
REMARK VINA RESULT:    -6.578      6.113      7.277
REMARK INTER + INTRA:          -8.739
REMARK INTER:                  -7.704
REMARK INTRA:                  -1.035
REMARK UNBOUND:                -1.008
REMARK  4 active torsions:
REMARK  status: ('A' for Active; 'I' for Inactive)
REMARK    1  A    between atoms: O_1  and  C_2 
REMARK    2  A    between atoms: C_4  and  O_5 
REMARK    3  A    between atoms: C_6  and  C_10 
REMARK    4  A    between atoms: N_16  and  C_17 
ROOT
HETATM    1  C   UNL     1       2.190   8.520  25.683  0.00  0.00     0.172 A 
HETATM    2  N   UNL     1       2.339   8.135  26.924  0.00  0.00    -0.151 NA
HETATM    3  N   UNL     1       3.453   7.357  26.927  0.00  0.00    -0.226 N 
HETATM    4  H   UNL     1       3.912   7.060  27.780  0.00  0.00     0.194 HD
HETATM    5  C   UNL     1       4.014   7.295  25.661  0.00  0.00     0.349 A 
HETATM    6  O   UNL     1       5.086   6.775  25.399  0.00  0.00    -0.245 OA
HETATM    7  N   UNL     1       3.153   8.006  24.840  0.00  0.00    -0.241 N 
ENDROOT
BRANCH   1   8
HETATM    8  C   UNL     1       1.039   9.372  25.258  0.00  0.00     0.047 C 
HETATM    9  C   UNL     1      -0.248   8.819  25.115  0.00  0.00     0.082 C 
HETATM   10  C   UNL     1      -1.349   9.619  24.798  0.00  0.00     0.075 C 
HETATM   11  C   UNL     1      -1.178  10.990  24.629  0.00  0.00     0.085 C 
HETATM   12  C   UNL     1       0.100  11.546  24.697  0.00  0.00     0.040 C 
HETATM   13  C   UNL     1       1.209  10.732  24.965  0.00  0.00     0.039 C 
HETATM   14  I   UNL     1       0.419  13.602  24.477  0.00  0.00    -0.042 I 
BRANCH   9  15
HETATM   15  O   UNL     1      -0.470   7.484  25.313  0.00  0.00    -0.360 OA
HETATM   16  H   UNL     1      -1.422   7.298  25.308  0.00  0.00     0.217 HD
ENDBRANCH   9  15
BRANCH  11  17
HETATM   17  O   UNL     1      -2.269  11.781  24.404  0.00  0.00    -0.359 OA
HETATM   18  H   UNL     1      -3.077  11.243  24.443  0.00  0.00     0.217 HD
ENDBRANCH  11  17
ENDBRANCH   1   8
BRANCH   7  19
HETATM   19  C   UNL     1       3.499   8.271  23.502  0.00  0.00     0.084 A 
HETATM   20  C   UNL     1       4.054   9.485  23.089  0.00  0.00     0.143 A 
HETATM   21  F   UNL     1       4.282  10.467  23.974  0.00  0.00    -0.204 F 
HETATM   22  C   UNL     1       4.439   9.685  21.763  0.00  0.00     0.044 A 
HETATM   23  C   UNL     1       4.267   8.667  20.828  0.00  0.00     0.003 A 
HETATM   24  C   UNL     1       3.712   7.451  21.216  0.00  0.00     0.002 A 
HETATM   25  C   UNL     1       3.340   7.252  22.547  0.00  0.00     0.033 A 
ENDBRANCH   7  19
TORSDOF 4
ENDMDL
MODEL 7
REMARK VINA RESULT:    -6.548      3.317      5.068
REMARK INTER + INTRA:          -8.704
REMARK INTER:                  -7.833
REMARK INTRA:                  -0.871
REMARK UNBOUND:                -1.008
REMARK  4 active torsions:
REMARK  status: ('A' for Active; 'I' for Inactive)
REMARK    1  A    between atoms: O_1  and  C_2 
REMARK    2  A    between atoms: C_4  and  O_5 
REMARK    3  A    between atoms: C_6  and  C_10 
REMARK    4  A    between atoms: N_16  and  C_17 
ROOT
HETATM    1  C   UNL     1       4.871   7.264  20.881  0.00  0.00     0.172 A 
HETATM    2  N   UNL     1       6.096   7.633  20.609  0.00  0.00    -0.151 NA
HETATM    3  N   UNL     1       6.309   7.249  19.323  0.00  0.00    -0.226 N 
HETATM    4  H   UNL     1       7.110   7.557  18.785  0.00  0.00     0.194 HD
HETATM    5  C   UNL     1       5.173   6.661  18.790  0.00  0.00     0.349 A 
HETATM    6  O   UNL     1       5.039   6.340  17.621  0.00  0.00    -0.245 OA
HETATM    7  N   UNL     1       4.257   6.618  19.829  0.00  0.00    -0.241 N 
ENDROOT
BRANCH   1   8
HETATM    8  C   UNL     1       4.267   7.480  22.230  0.00  0.00     0.047 C 
HETATM    9  C   UNL     1       3.919   8.775  22.661  0.00  0.00     0.082 C 
HETATM   10  C   UNL     1       3.279   8.983  23.886  0.00  0.00     0.075 C 
HETATM   11  C   UNL     1       2.970   7.894  24.695  0.00  0.00     0.085 C 
HETATM   12  C   UNL     1       3.371   6.611  24.319  0.00  0.00     0.040 C 
HETATM   13  C   UNL     1       4.056   6.412  23.113  0.00  0.00     0.039 C 
HETATM   14  I   UNL     1       2.914   4.931  25.479  0.00  0.00    -0.042 I 
BRANCH   9  15
HETATM   15  O   UNL     1       4.165   9.870  21.879  0.00  0.00    -0.360 OA
HETATM   16  H   UNL     1       3.666   9.808  21.049  0.00  0.00     0.217 HD
ENDBRANCH   9  15
BRANCH  11  17
HETATM   17  O   UNL     1       2.269   8.092  25.851  0.00  0.00    -0.359 OA
HETATM   18  H   UNL     1       2.819   8.579  26.487  0.00  0.00     0.217 HD
ENDBRANCH  11  17
ENDBRANCH   1   8
BRANCH   7  19
HETATM   19  C   UNL     1       2.930   6.212  19.594  0.00  0.00     0.084 A 
HETATM   20  C   UNL     1       2.056   6.921  18.765  0.00  0.00     0.143 A 
HETATM   21  F   UNL     1       2.458   8.043  18.150  0.00  0.00    -0.204 F 
HETATM   22  C   UNL     1       0.767   6.451  18.510  0.00  0.00     0.044 A 
HETATM   23  C   UNL     1       0.334   5.260  19.089  0.00  0.00     0.003 A 
HETATM   24  C   UNL     1       1.186   4.540  19.922  0.00  0.00     0.002 A 
HETATM   25  C   UNL     1       2.479   5.009  20.163  0.00  0.00     0.033 A 
ENDBRANCH   7  19
TORSDOF 4
ENDMDL
MODEL 8
REMARK VINA RESULT:    -6.404      3.251      5.294
REMARK INTER + INTRA:          -8.535
REMARK INTER:                  -7.525
REMARK INTRA:                  -1.010
REMARK UNBOUND:                -1.008
REMARK  4 active torsions:
REMARK  status: ('A' for Active; 'I' for Inactive)
REMARK    1  A    between atoms: O_1  and  C_2 
REMARK    2  A    between atoms: C_4  and  O_5 
REMARK    3  A    between atoms: C_6  and  C_10 
REMARK    4  A    between atoms: N_16  and  C_17 
ROOT
HETATM    1  C   UNL     1       4.401   5.016  19.945  0.00  0.00     0.172 A 
HETATM    2  N   UNL     1       5.386   4.170  20.094  0.00  0.00    -0.151 NA
HETATM    3  N   UNL     1       5.011   3.057  19.410  0.00  0.00    -0.226 N 
HETATM    4  H   UNL     1       5.649   2.299  19.204  0.00  0.00     0.194 HD
HETATM    5  C   UNL     1       3.780   3.246  18.802  0.00  0.00     0.349 A 
HETATM    6  O   UNL     1       3.262   2.464  18.022  0.00  0.00    -0.245 OA
HETATM    7  N   UNL     1       3.358   4.503  19.203  0.00  0.00    -0.241 N 
ENDROOT
BRANCH   1   8
HETATM    8  C   UNL     1       4.419   6.364  20.589  0.00  0.00     0.047 C 
HETATM    9  C   UNL     1       4.899   7.487  19.888  0.00  0.00     0.082 C 
HETATM   10  C   UNL     1       4.846   8.767  20.448  0.00  0.00     0.075 C 
HETATM   11  C   UNL     1       4.303   8.942  21.717  0.00  0.00     0.085 C 
HETATM   12  C   UNL     1       3.888   7.832  22.456  0.00  0.00     0.040 C 
HETATM   13  C   UNL     1       3.989   6.545  21.910  0.00  0.00     0.039 C 
HETATM   14  I   UNL     1       3.041   8.031  24.358  0.00  0.00    -0.042 I 
BRANCH   9  15
HETATM   15  O   UNL     1       5.402   7.369  18.621  0.00  0.00    -0.360 OA
HETATM   16  H   UNL     1       6.173   6.781  18.621  0.00  0.00     0.217 HD
ENDBRANCH   9  15
BRANCH  11  17
HETATM   17  O   UNL     1       4.175  10.203  22.226  0.00  0.00    -0.359 OA
HETATM   18  H   UNL     1       4.247  10.174  23.194  0.00  0.00     0.217 HD
ENDBRANCH  11  17
ENDBRANCH   1   8
BRANCH   7  19
HETATM   19  C   UNL     1       2.200   5.079  18.645  0.00  0.00     0.084 A 
HETATM   20  C   UNL     1       2.229   5.877  17.499  0.00  0.00     0.143 A 
HETATM   21  F   UNL     1       3.387   6.131  16.872  0.00  0.00    -0.204 F 
HETATM   22  C   UNL     1       1.051   6.379  16.943  0.00  0.00     0.044 A 
HETATM   23  C   UNL     1      -0.176   6.090  17.537  0.00  0.00     0.003 A 
HETATM   24  C   UNL     1      -0.227   5.301  18.683  0.00  0.00     0.002 A 
HETATM   25  C   UNL     1       0.954   4.791  19.226  0.00  0.00     0.033 A 
ENDBRANCH   7  19
TORSDOF 4
ENDMDL
MODEL 9
REMARK VINA RESULT:    -6.358      3.224      5.534
REMARK INTER + INTRA:          -8.481
REMARK INTER:                  -7.473
REMARK INTRA:                  -1.008
REMARK UNBOUND:                -1.008
REMARK  4 active torsions:
REMARK  status: ('A' for Active; 'I' for Inactive)
REMARK    1  A    between atoms: O_1  and  C_2 
REMARK    2  A    between atoms: C_4  and  O_5 
REMARK    3  A    between atoms: C_6  and  C_10 
REMARK    4  A    between atoms: N_16  and  C_17 
ROOT
HETATM    1  C   UNL     1       2.611   7.131  18.821  0.00  0.00     0.172 A 
HETATM    2  N   UNL     1       2.401   8.341  18.372  0.00  0.00    -0.151 NA
HETATM    3  N   UNL     1       1.355   8.228  17.511  0.00  0.00    -0.226 N 
HETATM    4  H   UNL     1       0.860   9.030  17.143  0.00  0.00     0.194 HD
HETATM    5  C   UNL     1       0.898   6.920  17.461  0.00  0.00     0.349 A 
HETATM    6  O   UNL     1      -0.106   6.556  16.871  0.00  0.00    -0.245 OA
HETATM    7  N   UNL     1       1.759   6.197  18.271  0.00  0.00    -0.241 N 
ENDROOT
BRANCH   1   8
HETATM    8  C   UNL     1       3.718   6.830  19.777  0.00  0.00     0.047 C 
HETATM    9  C   UNL     1       5.044   6.702  19.322  0.00  0.00     0.082 C 
HETATM   10  C   UNL     1       6.101   6.502  20.214  0.00  0.00     0.075 C 
HETATM   11  C   UNL     1       5.846   6.436  21.580  0.00  0.00     0.085 C 
HETATM   12  C   UNL     1       4.531   6.488  22.046  0.00  0.00     0.040 C 
HETATM   13  C   UNL     1       3.469   6.639  21.143  0.00  0.00     0.039 C 
HETATM   14  I   UNL     1       4.083   6.419  24.088  0.00  0.00    -0.042 I 
BRANCH   9  15
HETATM   15  O   UNL     1       5.348   6.804  17.991  0.00  0.00    -0.360 OA
HETATM   16  H   UNL     1       6.177   7.293  17.873  0.00  0.00     0.217 HD
ENDBRANCH   9  15
BRANCH  11  17
HETATM   17  O   UNL     1       6.889   6.326  22.456  0.00  0.00    -0.359 OA
HETATM   18  H   UNL     1       6.552   6.322  23.367  0.00  0.00     0.217 HD
ENDBRANCH  11  17
ENDBRANCH   1   8
BRANCH   7  19
HETATM   19  C   UNL     1       1.494   4.846  18.566  0.00  0.00     0.084 A 
HETATM   20  C   UNL     1       0.447   4.444  19.400  0.00  0.00     0.143 A 
HETATM   21  F   UNL     1      -0.364   5.351  19.964  0.00  0.00    -0.204 F 
HETATM   22  C   UNL     1       0.181   3.092  19.619  0.00  0.00     0.044 A 
HETATM   23  C   UNL     1       0.968   2.120  19.005  0.00  0.00     0.003 A 
HETATM   24  C   UNL     1       2.020   2.498  18.174  0.00  0.00     0.002 A 
HETATM   25  C   UNL     1       2.273   3.852  17.949  0.00  0.00     0.033 A 
ENDBRANCH   7  19
TORSDOF 4
ENDMDL
