MODEL 1
REMARK VINA RESULT:    -8.129      0.000      0.000
REMARK INTER + INTRA:         -11.362
REMARK INTER:                 -10.410
REMARK INTRA:                  -0.953
REMARK UNBOUND:                -0.858
REMARK  5 active torsions:
REMARK  status: ('A' for Active; 'I' for Inactive)
REMARK    1  A    between atoms: N8_1  and  C24_2 
REMARK    2  A    between atoms: N8_1  and  C7_8 
REMARK    3  A    between atoms: C2_13  and  N1_14 
REMARK    4  A    between atoms: N1_14  and  C17_15 
REMARK    5  A    between atoms: C14_16  and  C13_19 
ROOT
ATOM      1  C17 FTA A   1       4.995  15.197  19.054  1.00  0.00     0.142 C 
ATOM      2  C14 FTA A   1       6.004  16.071  18.867  1.00  0.00     0.158 C 
ATOM      3  C18 FTA A   1       6.754  16.061  17.629  1.00  0.00     0.069 C 
ATOM      4  N21 FTA A   1       7.307  15.900  16.608  1.00  0.00    -0.197 NA
ENDROOT
BRANCH   2   5
ATOM      5  C13 FTA A   1       6.326  17.050  19.930  1.00  0.00     0.197 A 
ATOM      6  N15 FTA A   1       6.201  16.844  21.302  1.00  0.00    -0.093 NA
ATOM      7  N19 FTA A   1       6.564  18.025  21.936  1.00  0.00    -0.231 N 
ATOM      8  N20 FTA A   1       6.911  18.968  20.979  1.00  0.00    -0.017 NA
ATOM      9  H15 FTA A   1       6.573  18.178  22.955  1.00  0.00     0.200 HD
ATOM     10  N16 FTA A   1       6.775  18.361  19.735  1.00  0.00    -0.090 NA
ENDBRANCH   2   5
BRANCH   1  11
ATOM     11  N1  FTA A   1       4.994  14.431  20.162  1.00  0.00    -0.389 N 
ATOM     12  H11 FTA A   1       5.692  14.645  20.889  1.00  0.00     0.159 HD
BRANCH  11  13
ATOM     13  C2  FTA A   1       4.103  13.350  20.405  1.00  0.00     0.028 A 
ATOM     14  C4  FTA A   1       2.824  13.306  19.856  1.00  0.00     0.031 A 
ATOM     15  C6  FTA A   1       1.920  12.339  20.316  1.00  0.00     0.031 A 
ATOM     16  C7  FTA A   1       2.258  11.421  21.306  1.00  0.00     0.032 A 
ATOM     17  C5  FTA A   1       3.541  11.462  21.824  1.00  0.00     0.031 A 
ATOM     18  C3  FTA A   1       4.448  12.421  21.391  1.00  0.00     0.031 A 
BRANCH  16  19
ATOM     19  N8  FTA A   1       1.305  10.577  21.932  1.00  0.00    -0.356 N 
ATOM     20  H1  FTA A   1       1.522   9.570  21.975  1.00  0.00     0.166 HD
BRANCH  19  21
ATOM     21  C24 FTA A   1       0.071  11.007  22.505  1.00  0.00     0.032 A 
ATOM     22  C26 FTA A   1      -1.110  10.947  21.802  1.00  0.00     0.029 A 
ATOM     23  C28 FTA A   1      -2.235  11.536  22.347  1.00  0.00     0.002 A 
ATOM     24  C30 FTA A   1      -2.224  12.155  23.585  1.00  0.00     0.000 A 
ATOM     25  C29 FTA A   1      -1.064  12.187  24.312  1.00  0.00     0.002 A 
ATOM     26  C27 FTA A   1       0.078  11.595  23.762  1.00  0.00     0.029 A 
ENDBRANCH  19  21
ENDBRANCH  16  19
ENDBRANCH  11  13
ENDBRANCH   1  11
TORSDOF 5
ENDMDL
MODEL 2
REMARK VINA RESULT:    -8.070      3.044      7.883
REMARK INTER + INTRA:         -11.286
REMARK INTER:                 -10.497
REMARK INTRA:                  -0.789
REMARK UNBOUND:                -0.858
REMARK  5 active torsions:
REMARK  status: ('A' for Active; 'I' for Inactive)
REMARK    1  A    between atoms: N8_1  and  C24_2 
REMARK    2  A    between atoms: N8_1  and  C7_8 
REMARK    3  A    between atoms: C2_13  and  N1_14 
REMARK    4  A    between atoms: N1_14  and  C17_15 
REMARK    5  A    between atoms: C14_16  and  C13_19 
ROOT
ATOM      1  C17 FTA A   1       0.907   9.491  24.308  1.00  0.00     0.142 C 
ATOM      2  C14 FTA A   1       0.449   9.327  23.051  1.00  0.00     0.158 C 
ATOM      3  C18 FTA A   1       0.789   8.135  22.303  1.00  0.00     0.069 C 
ATOM      4  N21 FTA A   1       1.190   7.154  21.800  1.00  0.00    -0.197 NA
ENDROOT
BRANCH   2   5
ATOM      5  C13 FTA A   1      -0.416  10.367  22.449  1.00  0.00     0.197 A 
ATOM      6  N15 FTA A   1      -0.651  10.555  21.089  1.00  0.00    -0.093 NA
ATOM      7  N19 FTA A   1      -1.479  11.662  20.957  1.00  0.00    -0.231 N 
ATOM      8  N20 FTA A   1      -1.764  12.170  22.216  1.00  0.00    -0.017 NA
ATOM      9  H15 FTA A   1      -1.827  12.045  20.066  1.00  0.00     0.200 HD
ATOM     10  N16 FTA A   1      -1.114  11.361  23.144  1.00  0.00    -0.090 NA
ENDBRANCH   2   5
BRANCH   1  11
ATOM     11  N1  FTA A   1       1.561  10.627  24.619  1.00  0.00    -0.389 N 
ATOM     12  H11 FTA A   1       1.416  11.016  25.563  1.00  0.00     0.159 HD
BRANCH  11  13
ATOM     13  C2  FTA A   1       2.435  11.330  23.746  1.00  0.00     0.028 A 
ATOM     14  C4  FTA A   1       2.270  12.684  23.465  1.00  0.00     0.031 A 
ATOM     15  C6  FTA A   1       3.017  13.258  22.427  1.00  0.00     0.031 A 
ATOM     16  C7  FTA A   1       3.918  12.518  21.666  1.00  0.00     0.032 A 
ATOM     17  C5  FTA A   1       4.089  11.180  21.975  1.00  0.00     0.031 A 
ATOM     18  C3  FTA A   1       3.348  10.589  22.991  1.00  0.00     0.031 A 
BRANCH  16  19
ATOM     19  N8  FTA A   1       4.524  13.021  20.486  1.00  0.00    -0.356 N 
ATOM     20  H1  FTA A   1       5.252  12.441  20.045  1.00  0.00     0.166 HD
BRANCH  19  21
ATOM     21  C24 FTA A   1       4.208  14.265  19.860  1.00  0.00     0.032 A 
ATOM     22  C26 FTA A   1       3.136  14.391  19.009  1.00  0.00     0.029 A 
ATOM     23  C28 FTA A   1       2.986  15.570  18.303  1.00  0.00     0.002 A 
ATOM     24  C30 FTA A   1       3.857  16.637  18.446  1.00  0.00     0.000 A 
ATOM     25  C29 FTA A   1       4.906  16.538  19.320  1.00  0.00     0.002 A 
ATOM     26  C27 FTA A   1       5.063  15.344  20.033  1.00  0.00     0.029 A 
ENDBRANCH  19  21
ENDBRANCH  16  19
ENDBRANCH  11  13
ENDBRANCH   1  11
TORSDOF 5
ENDMDL
MODEL 3
REMARK VINA RESULT:    -8.014      1.965      2.634
REMARK INTER + INTRA:         -11.214
REMARK INTER:                 -10.259
REMARK INTRA:                  -0.955
REMARK UNBOUND:                -0.858
REMARK  5 active torsions:
REMARK  status: ('A' for Active; 'I' for Inactive)
REMARK    1  A    between atoms: N8_1  and  C24_2 
REMARK    2  A    between atoms: N8_1  and  C7_8 
REMARK    3  A    between atoms: C2_13  and  N1_14 
REMARK    4  A    between atoms: N1_14  and  C17_15 
REMARK    5  A    between atoms: C14_16  and  C13_19 
ROOT
ATOM      1  C17 FTA A   1       4.121  16.126  18.852  1.00  0.00     0.142 C 
ATOM      2  C14 FTA A   1       5.433  16.423  18.931  1.00  0.00     0.158 C 
ATOM      3  C18 FTA A   1       6.361  15.881  17.963  1.00  0.00     0.069 C 
ATOM      4  N21 FTA A   1       7.000  15.327  17.150  1.00  0.00    -0.197 NA
ENDROOT
BRANCH   2   5
ATOM      5  C13 FTA A   1       5.912  17.320  20.008  1.00  0.00     0.197 A 
ATOM      6  N15 FTA A   1       6.164  16.958  21.329  1.00  0.00    -0.093 NA
ATOM      7  N19 FTA A   1       6.551  18.104  22.010  1.00  0.00    -0.231 N 
ATOM      8  N20 FTA A   1       6.542  19.179  21.133  1.00  0.00    -0.017 NA
ATOM      9  H15 FTA A   1       6.804  18.150  23.008  1.00  0.00     0.200 HD
ATOM     10  N16 FTA A   1       6.157  18.693  19.888  1.00  0.00    -0.090 NA
ENDBRANCH   2   5
BRANCH   1  11
ATOM     11  N1  FTA A   1       3.497  15.632  19.939  1.00  0.00    -0.389 N 
ATOM     12  H11 FTA A   1       2.959  16.291  20.520  1.00  0.00     0.159 HD
BRANCH  11  13
ATOM     13  C2  FTA A   1       3.525  14.270  20.347  1.00  0.00     0.028 A 
ATOM     14  C4  FTA A   1       2.422  13.432  20.206  1.00  0.00     0.031 A 
ATOM     15  C6  FTA A   1       2.437  12.178  20.832  1.00  0.00     0.031 A 
ATOM     16  C7  FTA A   1       3.518  11.744  21.595  1.00  0.00     0.032 A 
ATOM     17  C5  FTA A   1       4.616  12.579  21.704  1.00  0.00     0.031 A 
ATOM     18  C3  FTA A   1       4.616  13.831  21.102  1.00  0.00     0.031 A 
BRANCH  16  19
ATOM     19  N8  FTA A   1       3.472  10.580  22.404  1.00  0.00    -0.356 N 
ATOM     20  H1  FTA A   1       4.167  10.503  23.160  1.00  0.00     0.166 HD
BRANCH  19  21
ATOM     21  C24 FTA A   1       2.541   9.508  22.257  1.00  0.00     0.032 A 
ATOM     22  C26 FTA A   1       1.351   9.487  22.946  1.00  0.00     0.029 A 
ATOM     23  C28 FTA A   1       0.576   8.344  22.893  1.00  0.00     0.002 A 
ATOM     24  C30 FTA A   1       0.938   7.234  22.149  1.00  0.00     0.000 A 
ATOM     25  C29 FTA A   1       2.102   7.257  21.427  1.00  0.00     0.002 A 
ATOM     26  C27 FTA A   1       2.891   8.412  21.482  1.00  0.00     0.029 A 
ENDBRANCH  19  21
ENDBRANCH  16  19
ENDBRANCH  11  13
ENDBRANCH   1  11
TORSDOF 5
ENDMDL
MODEL 4
REMARK VINA RESULT:    -7.929      1.658      2.670
REMARK INTER + INTRA:         -11.104
REMARK INTER:                 -10.179
REMARK INTRA:                  -0.925
REMARK UNBOUND:                -0.858
REMARK  5 active torsions:
REMARK  status: ('A' for Active; 'I' for Inactive)
REMARK    1  A    between atoms: N8_1  and  C24_2 
REMARK    2  A    between atoms: N8_1  and  C7_8 
REMARK    3  A    between atoms: C2_13  and  N1_14 
REMARK    4  A    between atoms: N1_14  and  C17_15 
REMARK    5  A    between atoms: C14_16  and  C13_19 
ROOT
ATOM      1  C17 FTA A   1       5.487  16.860  18.860  1.00  0.00     0.142 C 
ATOM      2  C14 FTA A   1       6.234  16.818  17.738  1.00  0.00     0.158 C 
ATOM      3  C18 FTA A   1       5.599  16.873  16.439  1.00  0.00     0.069 C 
ATOM      4  N21 FTA A   1       4.949  16.868  15.463  1.00  0.00    -0.197 NA
ENDROOT
BRANCH   2   5
ATOM      5  C13 FTA A   1       7.708  16.730  17.848  1.00  0.00     0.197 A 
ATOM      6  N15 FTA A   1       8.533  15.848  17.154  1.00  0.00    -0.093 NA
ATOM      7  N19 FTA A   1       9.835  16.068  17.584  1.00  0.00    -0.231 N 
ATOM      8  N20 FTA A   1       9.835  17.074  18.539  1.00  0.00    -0.017 NA
ATOM      9  H15 FTA A   1      10.669  15.565  17.247  1.00  0.00     0.200 HD
ATOM     10  N16 FTA A   1       8.518  17.494  18.696  1.00  0.00    -0.090 NA
ENDBRANCH   2   5
BRANCH   1  11
ATOM     11  N1  FTA A   1       5.652  15.898  19.788  1.00  0.00    -0.389 N 
ATOM     12  H11 FTA A   1       6.566  15.845  20.261  1.00  0.00     0.159 HD
BRANCH  11  13
ATOM     13  C2  FTA A   1       4.660  14.953  20.167  1.00  0.00     0.028 A 
ATOM     14  C4  FTA A   1       4.801  14.140  21.289  1.00  0.00     0.031 A 
ATOM     15  C6  FTA A   1       3.907  13.077  21.476  1.00  0.00     0.031 A 
ATOM     16  C7  FTA A   1       2.882  12.805  20.574  1.00  0.00     0.032 A 
ATOM     17  C5  FTA A   1       2.740  13.637  19.477  1.00  0.00     0.031 A 
ATOM     18  C3  FTA A   1       3.624  14.688  19.267  1.00  0.00     0.031 A 
BRANCH  16  19
ATOM     19  N8  FTA A   1       2.102  11.622  20.628  1.00  0.00    -0.356 N 
ATOM     20  H1  FTA A   1       2.491  10.779  20.181  1.00  0.00     0.166 HD
BRANCH  19  21
ATOM     21  C24 FTA A   1       0.824  11.503  21.252  1.00  0.00     0.032 A 
ATOM     22  C26 FTA A   1      -0.054  10.501  20.910  1.00  0.00     0.029 A 
ATOM     23  C28 FTA A   1      -1.337  10.542  21.422  1.00  0.00     0.002 A 
ATOM     24  C30 FTA A   1      -1.760  11.535  22.290  1.00  0.00     0.000 A 
ATOM     25  C29 FTA A   1      -0.883  12.517  22.668  1.00  0.00     0.002 A 
ATOM     26  C27 FTA A   1       0.416  12.480  22.148  1.00  0.00     0.029 A 
ENDBRANCH  19  21
ENDBRANCH  16  19
ENDBRANCH  11  13
ENDBRANCH   1  11
TORSDOF 5
ENDMDL
MODEL 5
REMARK VINA RESULT:    -7.832      2.005      8.684
REMARK INTER + INTRA:         -10.979
REMARK INTER:                  -9.935
REMARK INTRA:                  -1.044
REMARK UNBOUND:                -0.858
REMARK  5 active torsions:
REMARK  status: ('A' for Active; 'I' for Inactive)
REMARK    1  A    between atoms: N8_1  and  C24_2 
REMARK    2  A    between atoms: N8_1  and  C7_8 
REMARK    3  A    between atoms: C2_13  and  N1_14 
REMARK    4  A    between atoms: N1_14  and  C17_15 
REMARK    5  A    between atoms: C14_16  and  C13_19 
ROOT
ATOM      1  C17 FTA A   1       2.304  11.414  22.734  1.00  0.00     0.142 C 
ATOM      2  C14 FTA A   1       1.121  10.942  23.174  1.00  0.00     0.158 C 
ATOM      3  C18 FTA A   1       1.076   9.778  24.032  1.00  0.00     0.069 C 
ATOM      4  N21 FTA A   1       1.188   8.799  24.668  1.00  0.00    -0.197 NA
ENDROOT
BRANCH   2   5
ATOM      5  C13 FTA A   1      -0.129  11.635  22.787  1.00  0.00     0.197 A 
ATOM      6  N15 FTA A   1      -1.147  12.038  23.648  1.00  0.00    -0.093 NA
ATOM      7  N19 FTA A   1      -2.150  12.605  22.873  1.00  0.00    -0.231 N 
ATOM      8  N20 FTA A   1      -1.775  12.559  21.538  1.00  0.00    -0.017 NA
ATOM      9  H15 FTA A   1      -3.034  12.996  23.231  1.00  0.00     0.200 HD
ATOM     10  N16 FTA A   1      -0.517  11.968  21.483  1.00  0.00    -0.090 NA
ENDBRANCH   2   5
BRANCH   1  11
ATOM     11  N1  FTA A   1       2.478  11.604  21.412  1.00  0.00    -0.389 N 
ATOM     12  H11 FTA A   1       2.017  10.942  20.771  1.00  0.00     0.159 HD
BRANCH  11  13
ATOM     13  C2  FTA A   1       3.248  12.650  20.833  1.00  0.00     0.028 A 
ATOM     14  C4  FTA A   1       4.398  13.147  21.441  1.00  0.00     0.031 A 
ATOM     15  C6  FTA A   1       4.977  14.322  20.943  1.00  0.00     0.031 A 
ATOM     16  C7  FTA A   1       4.438  15.011  19.860  1.00  0.00     0.032 A 
ATOM     17  C5  FTA A   1       3.309  14.491  19.251  1.00  0.00     0.031 A 
ATOM     18  C3  FTA A   1       2.713  13.335  19.738  1.00  0.00     0.031 A 
BRANCH  16  19
ATOM     19  N8  FTA A   1       4.878  16.303  19.473  1.00  0.00    -0.356 N 
ATOM     20  H1  FTA A   1       4.247  17.094  19.666  1.00  0.00     0.166 HD
BRANCH  19  21
ATOM     21  C24 FTA A   1       6.123  16.596  18.840  1.00  0.00     0.032 A 
ATOM     22  C26 FTA A   1       6.555  15.894  17.739  1.00  0.00     0.029 A 
ATOM     23  C28 FTA A   1       7.840  16.108  17.280  1.00  0.00     0.002 A 
ATOM     24  C30 FTA A   1       8.696  17.025  17.866  1.00  0.00     0.000 A 
ATOM     25  C29 FTA A   1       8.265  17.758  18.939  1.00  0.00     0.002 A 
ATOM     26  C27 FTA A   1       6.965  17.541  19.409  1.00  0.00     0.029 A 
ENDBRANCH  19  21
ENDBRANCH  16  19
ENDBRANCH  11  13
ENDBRANCH   1  11
TORSDOF 5
ENDMDL
MODEL 6
REMARK VINA RESULT:    -7.746      2.029      8.891
REMARK INTER + INTRA:         -10.868
REMARK INTER:                  -9.927
REMARK INTRA:                  -0.941
REMARK UNBOUND:                -0.858
REMARK  5 active torsions:
REMARK  status: ('A' for Active; 'I' for Inactive)
REMARK    1  A    between atoms: N8_1  and  C24_2 
REMARK    2  A    between atoms: N8_1  and  C7_8 
REMARK    3  A    between atoms: C2_13  and  N1_14 
REMARK    4  A    between atoms: N1_14  and  C17_15 
REMARK    5  A    between atoms: C14_16  and  C13_19 
ROOT
ATOM      1  C17 FTA A   1       1.552  11.900  20.671  1.00  0.00     0.142 C 
ATOM      2  C14 FTA A   1       0.508  11.470  21.407  1.00  0.00     0.158 C 
ATOM      3  C18 FTA A   1      -0.844  11.811  21.021  1.00  0.00     0.069 C 
ATOM      4  N21 FTA A   1      -1.872  12.210  20.624  1.00  0.00    -0.197 NA
ENDROOT
BRANCH   2   5
ATOM      5  C13 FTA A   1       0.757  10.633  22.604  1.00  0.00     0.197 A 
ATOM      6  N15 FTA A   1       1.221  11.081  23.838  1.00  0.00    -0.093 NA
ATOM      7  N19 FTA A   1       1.357   9.971  24.661  1.00  0.00    -0.231 N 
ATOM      8  N20 FTA A   1       0.987   8.834  23.958  1.00  0.00    -0.017 NA
ATOM      9  H15 FTA A   1       1.682   9.988  25.639  1.00  0.00     0.200 HD
ATOM     10  N16 FTA A   1       0.604   9.244  22.685  1.00  0.00    -0.090 NA
ENDBRANCH   2   5
BRANCH   1  11
ATOM     11  N1  FTA A   1       2.553  12.561  21.284  1.00  0.00    -0.389 N 
ATOM     12  H11 FTA A   1       2.668  12.417  22.298  1.00  0.00     0.159 HD
BRANCH  11  13
ATOM     13  C2  FTA A   1       3.463  13.443  20.639  1.00  0.00     0.028 A 
ATOM     14  C4  FTA A   1       4.577  13.965  21.291  1.00  0.00     0.031 A 
ATOM     15  C6  FTA A   1       5.299  15.000  20.680  1.00  0.00     0.031 A 
ATOM     16  C7  FTA A   1       4.937  15.525  19.442  1.00  0.00     0.032 A 
ATOM     17  C5  FTA A   1       3.842  14.977  18.796  1.00  0.00     0.031 A 
ATOM     18  C3  FTA A   1       3.106  13.961  19.390  1.00  0.00     0.031 A 
BRANCH  16  19
ATOM     19  N8  FTA A   1       5.519  16.701  18.905  1.00  0.00    -0.356 N 
ATOM     20  H1  FTA A   1       4.921  17.538  18.842  1.00  0.00     0.166 HD
BRANCH  19  21
ATOM     21  C24 FTA A   1       6.865  16.821  18.443  1.00  0.00     0.032 A 
ATOM     22  C26 FTA A   1       7.350  16.035  17.425  1.00  0.00     0.029 A 
ATOM     23  C28 FTA A   1       8.702  16.077  17.143  1.00  0.00     0.002 A 
ATOM     24  C30 FTA A   1       9.578  16.904  17.826  1.00  0.00     0.000 A 
ATOM     25  C29 FTA A   1       9.100  17.720  18.816  1.00  0.00     0.002 A 
ATOM     26  C27 FTA A   1       7.732  17.676  19.107  1.00  0.00     0.029 A 
ENDBRANCH  19  21
ENDBRANCH  16  19
ENDBRANCH  11  13
ENDBRANCH   1  11
TORSDOF 5
ENDMDL
MODEL 7
REMARK VINA RESULT:    -7.662      1.997      8.409
REMARK INTER + INTRA:         -10.760
REMARK INTER:                  -9.862
REMARK INTRA:                  -0.898
REMARK UNBOUND:                -0.858
REMARK  5 active torsions:
REMARK  status: ('A' for Active; 'I' for Inactive)
REMARK    1  A    between atoms: N8_1  and  C24_2 
REMARK    2  A    between atoms: N8_1  and  C7_8 
REMARK    3  A    between atoms: C2_13  and  N1_14 
REMARK    4  A    between atoms: N1_14  and  C17_15 
REMARK    5  A    between atoms: C14_16  and  C13_19 
ROOT
ATOM      1  C17 FTA A   1       1.116  11.462  20.556  1.00  0.00     0.142 C 
ATOM      2  C14 FTA A   1       0.323  11.352  21.641  1.00  0.00     0.158 C 
ATOM      3  C18 FTA A   1      -0.872  12.160  21.753  1.00  0.00     0.069 C 
ATOM      4  N21 FTA A   1      -1.770  12.913  21.735  1.00  0.00    -0.197 NA
ENDROOT
BRANCH   2   5
ATOM      5  C13 FTA A   1       0.678  10.388  22.707  1.00  0.00     0.197 A 
ATOM      6  N15 FTA A   1       0.489  10.568  24.075  1.00  0.00    -0.093 NA
ATOM      7  N19 FTA A   1       1.000   9.449  24.719  1.00  0.00    -0.231 N 
ATOM      8  N20 FTA A   1       1.508   8.571  23.773  1.00  0.00    -0.017 NA
ATOM      9  H15 FTA A   1       1.001   9.294  25.738  1.00  0.00     0.200 HD
ATOM     10  N16 FTA A   1       1.300   9.147  22.523  1.00  0.00    -0.090 NA
ENDBRANCH   2   5
BRANCH   1  11
ATOM     11  N1  FTA A   1       2.431  11.695  20.731  1.00  0.00    -0.389 N 
ATOM     12  H11 FTA A   1       3.011  10.916  21.075  1.00  0.00     0.159 HD
BRANCH  11  13
ATOM     13  C2  FTA A   1       3.080  12.934  20.476  1.00  0.00     0.028 A 
ATOM     14  C4  FTA A   1       2.772  13.718  19.367  1.00  0.00     0.031 A 
ATOM     15  C6  FTA A   1       3.601  14.802  19.050  1.00  0.00     0.031 A 
ATOM     16  C7  FTA A   1       4.725  15.121  19.807  1.00  0.00     0.032 A 
ATOM     17  C5  FTA A   1       5.003  14.348  20.920  1.00  0.00     0.031 A 
ATOM     18  C3  FTA A   1       4.202  13.260  21.244  1.00  0.00     0.031 A 
BRANCH  16  19
ATOM     19  N8  FTA A   1       5.688  16.075  19.390  1.00  0.00    -0.356 N 
ATOM     20  H1  FTA A   1       6.341  15.792  18.645  1.00  0.00     0.166 HD
BRANCH  19  21
ATOM     21  C24 FTA A   1       5.828  17.394  19.918  1.00  0.00     0.032 A 
ATOM     22  C26 FTA A   1       5.438  18.501  19.202  1.00  0.00     0.029 A 
ATOM     23  C28 FTA A   1       5.757  19.753  19.694  1.00  0.00     0.002 A 
ATOM     24  C30 FTA A   1       6.425  19.932  20.893  1.00  0.00     0.000 A 
ATOM     25  C29 FTA A   1       6.785  18.838  21.633  1.00  0.00     0.002 A 
ATOM     26  C27 FTA A   1       6.467  17.569  21.137  1.00  0.00     0.029 A 
ENDBRANCH  19  21
ENDBRANCH  16  19
ENDBRANCH  11  13
ENDBRANCH   1  11
TORSDOF 5
ENDMDL
MODEL 8
REMARK VINA RESULT:    -7.645      1.192      2.646
REMARK INTER + INTRA:         -10.737
REMARK INTER:                  -9.669
REMARK INTRA:                  -1.068
REMARK UNBOUND:                -0.858
REMARK  5 active torsions:
REMARK  status: ('A' for Active; 'I' for Inactive)
REMARK    1  A    between atoms: N8_1  and  C24_2 
REMARK    2  A    between atoms: N8_1  and  C7_8 
REMARK    3  A    between atoms: C2_13  and  N1_14 
REMARK    4  A    between atoms: N1_14  and  C17_15 
REMARK    5  A    between atoms: C14_16  and  C13_19 
ROOT
ATOM      1  C17 FTA A   1       5.651  16.478  20.337  1.00  0.00     0.142 C 
ATOM      2  C14 FTA A   1       6.473  17.217  19.565  1.00  0.00     0.158 C 
ATOM      3  C18 FTA A   1       6.866  18.545  19.985  1.00  0.00     0.069 C 
ATOM      4  N21 FTA A   1       7.052  19.617  20.421  1.00  0.00    -0.197 NA
ENDROOT
BRANCH   2   5
ATOM      5  C13 FTA A   1       6.983  16.652  18.295  1.00  0.00     0.197 A 
ATOM      6  N15 FTA A   1       6.245  15.921  17.366  1.00  0.00    -0.093 NA
ATOM      7  N19 FTA A   1       7.112  15.545  16.348  1.00  0.00    -0.231 N 
ATOM      8  N20 FTA A   1       8.381  16.029  16.628  1.00  0.00    -0.017 NA
ATOM      9  H15 FTA A   1       6.853  14.993  15.517  1.00  0.00     0.200 HD
ATOM     10  N16 FTA A   1       8.301  16.725  17.830  1.00  0.00    -0.090 NA
ENDBRANCH   2   5
BRANCH   1  11
ATOM     11  N1  FTA A   1       4.539  15.954  19.787  1.00  0.00    -0.389 N 
ATOM     12  H11 FTA A   1       4.012  16.542  19.125  1.00  0.00     0.159 HD
BRANCH  11  13
ATOM     13  C2  FTA A   1       4.037  14.650  20.049  1.00  0.00     0.028 A 
ATOM     14  C4  FTA A   1       2.924  14.137  19.387  1.00  0.00     0.031 A 
ATOM     15  C6  FTA A   1       2.345  12.949  19.852  1.00  0.00     0.031 A 
ATOM     16  C7  FTA A   1       2.844  12.264  20.956  1.00  0.00     0.032 A 
ATOM     17  C5  FTA A   1       3.965  12.773  21.587  1.00  0.00     0.031 A 
ATOM     18  C3  FTA A   1       4.547  13.957  21.151  1.00  0.00     0.031 A 
BRANCH  16  19
ATOM     19  N8  FTA A   1       2.158  11.184  21.568  1.00  0.00    -0.356 N 
ATOM     20  H1  FTA A   1       2.683  10.309  21.710  1.00  0.00     0.166 HD
BRANCH  19  21
ATOM     21  C24 FTA A   1       0.798  11.209  22.003  1.00  0.00     0.032 A 
ATOM     22  C26 FTA A   1      -0.183  10.509  21.342  1.00  0.00     0.029 A 
ATOM     23  C28 FTA A   1      -1.501  10.712  21.706  1.00  0.00     0.002 A 
ATOM     24  C30 FTA A   1      -1.865  11.568  22.731  1.00  0.00     0.000 A 
ATOM     25  C29 FTA A   1      -0.894  12.242  23.423  1.00  0.00     0.002 A 
ATOM     26  C27 FTA A   1       0.441  12.042  23.054  1.00  0.00     0.029 A 
ENDBRANCH  19  21
ENDBRANCH  16  19
ENDBRANCH  11  13
ENDBRANCH   1  11
TORSDOF 5
ENDMDL
MODEL 9
REMARK VINA RESULT:    -7.571      2.148      3.220
REMARK INTER + INTRA:         -10.641
REMARK INTER:                  -9.784
REMARK INTRA:                  -0.858
REMARK UNBOUND:                -0.858
REMARK  5 active torsions:
REMARK  status: ('A' for Active; 'I' for Inactive)
REMARK    1  A    between atoms: N8_1  and  C24_2 
REMARK    2  A    between atoms: N8_1  and  C7_8 
REMARK    3  A    between atoms: C2_13  and  N1_14 
REMARK    4  A    between atoms: N1_14  and  C17_15 
REMARK    5  A    between atoms: C14_16  and  C13_19 
ROOT
ATOM      1  C17 FTA A   1       4.598  15.994  19.353  1.00  0.00     0.142 C 
ATOM      2  C14 FTA A   1       5.040  16.482  18.177  1.00  0.00     0.158 C 
ATOM      3  C18 FTA A   1       4.097  16.948  17.182  1.00  0.00     0.069 C 
ATOM      4  N21 FTA A   1       3.223  17.233  16.455  1.00  0.00    -0.197 NA
ENDROOT
BRANCH   2   5
ATOM      5  C13 FTA A   1       6.496  16.553  17.918  1.00  0.00     0.197 A 
ATOM      6  N15 FTA A   1       7.315  17.661  18.122  1.00  0.00    -0.093 NA
ATOM      7  N19 FTA A   1       8.596  17.316  17.711  1.00  0.00    -0.231 N 
ATOM      8  N20 FTA A   1       8.589  16.007  17.250  1.00  0.00    -0.017 NA
ATOM      9  H15 FTA A   1       9.420  17.933  17.742  1.00  0.00     0.200 HD
ATOM     10  N16 FTA A   1       7.290  15.529  17.388  1.00  0.00    -0.090 NA
ENDBRANCH   2   5
BRANCH   1  11
ATOM     11  N1  FTA A   1       5.022  14.780  19.754  1.00  0.00    -0.389 N 
ATOM     12  H11 FTA A   1       6.038  14.606  19.751  1.00  0.00     0.159 HD
BRANCH  11  13
ATOM     13  C2  FTA A   1       4.176  13.722  20.183  1.00  0.00     0.028 A 
ATOM     14  C4  FTA A   1       2.913  13.515  19.634  1.00  0.00     0.031 A 
ATOM     15  C6  FTA A   1       2.042  12.608  20.254  1.00  0.00     0.031 A 
ATOM     16  C7  FTA A   1       2.399  11.907  21.404  1.00  0.00     0.032 A 
ATOM     17  C5  FTA A   1       3.667  12.106  21.922  1.00  0.00     0.031 A 
ATOM     18  C3  FTA A   1       4.539  13.010  21.330  1.00  0.00     0.031 A 
BRANCH  16  19
ATOM     19  N8  FTA A   1       1.471  11.149  22.162  1.00  0.00    -0.356 N 
ATOM     20  H1  FTA A   1       0.886  11.660  22.840  1.00  0.00     0.166 HD
BRANCH  19  21
ATOM     21  C24 FTA A   1       1.280   9.738  22.065  1.00  0.00     0.032 A 
ATOM     22  C26 FTA A   1       0.289   9.095  22.767  1.00  0.00     0.029 A 
ATOM     23  C28 FTA A   1       0.266   7.713  22.765  1.00  0.00     0.002 A 
ATOM     24  C30 FTA A   1       1.184   6.955  22.057  1.00  0.00     0.000 A 
ATOM     25  C29 FTA A   1       2.153   7.585  21.323  1.00  0.00     0.002 A 
ATOM     26  C27 FTA A   1       2.181   8.984  21.326  1.00  0.00     0.029 A 
ENDBRANCH  19  21
ENDBRANCH  16  19
ENDBRANCH  11  13
ENDBRANCH   1  11
TORSDOF 5
ENDMDL
