MODEL 1
REMARK minimizedAffinity -7.2301898
REMARK minimizedRMSD -1
REMARK  4 active torsions:
REMARK  status: ('A' for Active; 'I' for Inactive)
REMARK    1  A    between atoms: O_1  and  C_2 
REMARK    2  A    between atoms: C_5  and  C_6 
REMARK    3  A    between atoms: N_12  and  C_13 
REMARK    4  A    between atoms: C_20  and  O_21 
ROOT
HETATM    1  C   UNL     1      -0.493  10.008  26.327  0.00  0.00     0.170 A 
HETATM    2  N   UNL     1      -1.147  10.348  27.411  0.00  0.00    -0.153 NA
HETATM    3  N   UNL     1      -0.976   9.323  28.269  0.00  0.00    -0.251 N 
HETATM    4  H   UNL     1      -1.303   9.364  29.233  0.00  0.00     0.191 HD
HETATM    5  C   UNL     1      -0.154   8.352  27.724  0.00  0.00     0.201 A 
HETATM    6  S   UNL     1       0.373   7.077  28.653  0.00  0.00    -0.038 SA
HETATM    7  N   UNL     1       0.119   8.767  26.421  0.00  0.00    -0.266 N 
ENDROOT
BRANCH   1   8
HETATM    8  C   UNL     1      -0.470  10.965  25.189  0.00  0.00     0.045 C 
HETATM    9  C   UNL     1       0.810  11.440  24.829  0.00  0.00     0.021 C 
HETATM   10  C   UNL     1       0.996  12.244  23.705  0.00  0.00     0.037 C 
HETATM   11  C   UNL     1      -0.098  12.565  22.919  0.00  0.00     0.068 C 
HETATM   12  C   UNL     1      -1.381  12.178  23.298  0.00  0.00     0.074 C 
HETATM   13  C   UNL     1      -1.571  11.433  24.467  0.00  0.00     0.082 C 
BRANCH  11  14
HETATM   14  O   UNL     1       0.047  13.268  21.759  0.00  0.00    -0.361 OA
HETATM   15  H   UNL     1       0.994  13.392  21.584  0.00  0.00     0.217 HD
ENDBRANCH  11  14
BRANCH  13  16
HETATM   16  O   UNL     1      -2.873  11.233  24.828  0.00  0.00    -0.360 OA
HETATM   17  H   UNL     1      -2.906  10.961  25.761  0.00  0.00     0.217 HD
ENDBRANCH  13  16
ENDBRANCH   1   8
BRANCH   7  18
HETATM   18  C   UNL     1       0.889   8.041  25.461  0.00  0.00     0.082 A 
HETATM   19  C   UNL     1       0.244   7.345  24.420  0.00  0.00     0.033 A 
HETATM   20  C   UNL     1       0.962   6.742  23.381  0.00  0.00     0.002 A 
HETATM   21  C   UNL     1       2.346   6.853  23.337  0.00  0.00     0.003 A 
HETATM   22  C   UNL     1       3.010   7.494  24.378  0.00  0.00     0.044 A 
HETATM   23  C   UNL     1       2.287   8.036  25.444  0.00  0.00     0.143 A 
HETATM   24  F   UNL     1       2.984   8.532  26.477  0.00  0.00    -0.204 F 
ENDBRANCH   7  18
TORSDOF 4
ENDMDL
MODEL 2
REMARK minimizedAffinity -6.68785286
REMARK minimizedRMSD -1
REMARK  4 active torsions:
REMARK  status: ('A' for Active; 'I' for Inactive)
REMARK    1  A    between atoms: O_1  and  C_2 
REMARK    2  A    between atoms: C_5  and  C_6 
REMARK    3  A    between atoms: N_12  and  C_13 
REMARK    4  A    between atoms: C_20  and  O_21 
ROOT
HETATM    1  C   UNL     1      -0.513  10.295  26.158  0.00  0.00     0.170 A 
HETATM    2  N   UNL     1      -1.204  10.800  27.152  0.00  0.00    -0.153 NA
HETATM    3  N   UNL     1      -1.165   9.869  28.125  0.00  0.00    -0.251 N 
HETATM    4  H   UNL     1      -1.545  10.042  29.054  0.00  0.00     0.191 HD
HETATM    5  C   UNL     1      -0.389   8.788  27.746  0.00  0.00     0.201 A 
HETATM    6  S   UNL     1      -0.019   7.592  28.841  0.00  0.00    -0.038 SA
HETATM    7  N   UNL     1      -0.006   9.033  26.428  0.00  0.00    -0.266 N 
ENDROOT
BRANCH   1   8
HETATM    8  C   UNL     1      -0.348  11.114  24.928  0.00  0.00     0.045 C 
HETATM    9  C   UNL     1      -1.542  11.397  24.229  0.00  0.00     0.021 C 
HETATM   10  C   UNL     1      -1.553  12.256  23.130  0.00  0.00     0.037 C 
HETATM   11  C   UNL     1      -0.370  12.855  22.732  0.00  0.00     0.068 C 
HETATM   12  C   UNL     1       0.833  12.529  23.353  0.00  0.00     0.074 C 
HETATM   13  C   UNL     1       0.850  11.611  24.408  0.00  0.00     0.082 C 
BRANCH  11  14
HETATM   14  O   UNL     1      -0.347  13.774  21.724  0.00  0.00    -0.361 OA
HETATM   15  H   UNL     1      -1.260  13.960  21.450  0.00  0.00     0.217 HD
ENDBRANCH  11  14
BRANCH  13  16
HETATM   16  O   UNL     1       2.092  11.247  24.847  0.00  0.00    -0.360 OA
HETATM   17  H   UNL     1       2.019  10.430  25.368  0.00  0.00     0.217 HD
ENDBRANCH  13  16
ENDBRANCH   1   8
BRANCH   7  18
HETATM   18  C   UNL     1       0.762   8.151  25.607  0.00  0.00     0.082 A 
HETATM   19  C   UNL     1       0.140   7.439  24.561  0.00  0.00     0.033 A 
HETATM   20  C   UNL     1       0.878   6.678  23.647  0.00  0.00     0.002 A 
HETATM   21  C   UNL     1       2.264   6.639  23.734  0.00  0.00     0.003 A 
HETATM   22  C   UNL     1       2.898   7.295  24.785  0.00  0.00     0.044 A 
HETATM   23  C   UNL     1       2.147   7.999  25.730  0.00  0.00     0.143 A 
HETATM   24  F   UNL     1       2.798   8.506  26.787  0.00  0.00    -0.204 F 
ENDBRANCH   7  18
TORSDOF 4
ENDMDL
MODEL 3
REMARK minimizedAffinity -6.33047771
REMARK minimizedRMSD -1
REMARK  4 active torsions:
REMARK  status: ('A' for Active; 'I' for Inactive)
REMARK    1  A    between atoms: O_1  and  C_2 
REMARK    2  A    between atoms: C_5  and  C_6 
REMARK    3  A    between atoms: N_12  and  C_13 
REMARK    4  A    between atoms: C_20  and  O_21 
ROOT
HETATM    1  C   UNL     1      -0.336   9.898  26.345  0.00  0.00     0.170 A 
HETATM    2  N   UNL     1      -0.980  10.304  27.412  0.00  0.00    -0.153 NA
HETATM    3  N   UNL     1      -0.794   9.338  28.333  0.00  0.00    -0.251 N 
HETATM    4  H   UNL     1      -1.110   9.441  29.296  0.00  0.00     0.191 HD
HETATM    5  C   UNL     1       0.029   8.339  27.844  0.00  0.00     0.201 A 
HETATM    6  S   UNL     1       0.574   7.131  28.848  0.00  0.00    -0.038 SA
HETATM    7  N   UNL     1       0.285   8.670  26.513  0.00  0.00    -0.266 N 
ENDROOT
BRANCH   1   8
HETATM    8  C   UNL     1      -0.331  10.779  25.148  0.00  0.00     0.045 C 
HETATM    9  C   UNL     1      -1.591  10.973  24.540  0.00  0.00     0.021 C 
HETATM   10  C   UNL     1      -1.757  11.872  23.485  0.00  0.00     0.037 C 
HETATM   11  C   UNL     1      -0.665  12.600  23.043  0.00  0.00     0.068 C 
HETATM   12  C   UNL     1       0.602  12.367  23.571  0.00  0.00     0.074 C 
HETATM   13  C   UNL     1       0.777  11.411  24.578  0.00  0.00     0.082 C 
BRANCH  11  14
HETATM   14  O   UNL     1      -0.797  13.557  22.081  0.00  0.00    -0.361 OA
HETATM   15  H   UNL     1      -1.740  13.665  21.873  0.00  0.00     0.217 HD
ENDBRANCH  11  14
BRANCH  13  16
HETATM   16  O   UNL     1       2.074  11.153  24.920  0.00  0.00    -0.360 OA
HETATM   17  H   UNL     1       2.114  10.311  25.405  0.00  0.00     0.217 HD
ENDBRANCH  13  16
ENDBRANCH   1   8
BRANCH   7  18
HETATM   18  C   UNL     1       1.050   7.888  25.594  0.00  0.00     0.082 A 
HETATM   19  C   UNL     1       2.443   8.076  25.496  0.00  0.00     0.033 A 
HETATM   20  C   UNL     1       3.247   7.236  24.716  0.00  0.00     0.002 A 
HETATM   21  C   UNL     1       2.680   6.162  24.041  0.00  0.00     0.003 A 
HETATM   22  C   UNL     1       1.301   5.983  24.084  0.00  0.00     0.044 A 
HETATM   23  C   UNL     1       0.500   6.866  24.813  0.00  0.00     0.143 A 
HETATM   24  F   UNL     1      -0.829   6.719  24.719  0.00  0.00    -0.204 F 
ENDBRANCH   7  18
TORSDOF 4
ENDMDL
MODEL 4
REMARK minimizedAffinity -5.93880892
REMARK minimizedRMSD -1
REMARK  4 active torsions:
REMARK  status: ('A' for Active; 'I' for Inactive)
REMARK    1  A    between atoms: O_1  and  C_2 
REMARK    2  A    between atoms: C_5  and  C_6 
REMARK    3  A    between atoms: N_12  and  C_13 
REMARK    4  A    between atoms: C_20  and  O_21 
ROOT
HETATM    1  C   UNL     1       2.315   8.733  24.110  0.00  0.00     0.170 A 
HETATM    2  N   UNL     1       3.016   8.484  23.031  0.00  0.00    -0.153 NA
HETATM    3  N   UNL     1       3.465   7.222  23.178  0.00  0.00    -0.251 N 
HETATM    4  H   UNL     1       3.964   6.735  22.435  0.00  0.00     0.191 HD
HETATM    5  C   UNL     1       2.988   6.659  24.348  0.00  0.00     0.201 A 
HETATM    6  S   UNL     1       3.235   5.046  24.668  0.00  0.00    -0.038 SA
HETATM    7  N   UNL     1       2.279   7.669  24.998  0.00  0.00    -0.266 N 
ENDROOT
BRANCH   1   8
HETATM    8  C   UNL     1       1.654  10.059  24.230  0.00  0.00     0.045 C 
HETATM    9  C   UNL     1       2.528  11.169  24.215  0.00  0.00     0.021 C 
HETATM   10  C   UNL     1       2.040  12.476  24.195  0.00  0.00     0.037 C 
HETATM   11  C   UNL     1       0.671  12.683  24.170  0.00  0.00     0.068 C 
HETATM   12  C   UNL     1      -0.210  11.609  24.267  0.00  0.00     0.074 C 
HETATM   13  C   UNL     1       0.285  10.304  24.362  0.00  0.00     0.082 C 
BRANCH  11  14
HETATM   14  O   UNL     1       0.148  13.937  24.055  0.00  0.00    -0.361 OA
HETATM   15  H   UNL     1       0.874  14.567  23.912  0.00  0.00     0.217 HD
ENDBRANCH  11  14
BRANCH  13  16
HETATM   16  O   UNL     1      -0.652   9.339  24.603  0.00  0.00    -0.360 OA
HETATM   17  H   UNL     1      -0.207   8.535  24.920  0.00  0.00     0.217 HD
ENDBRANCH  13  16
ENDBRANCH   1   8
BRANCH   7  18
HETATM   18  C   UNL     1       1.655   7.555  26.279  0.00  0.00     0.082 A 
HETATM   19  C   UNL     1       2.306   8.048  27.427  0.00  0.00     0.033 A 
HETATM   20  C   UNL     1       1.672   8.086  28.674  0.00  0.00     0.002 A 
HETATM   21  C   UNL     1       0.354   7.663  28.798  0.00  0.00     0.003 A 
HETATM   22  C   UNL     1      -0.294   7.128  27.689  0.00  0.00     0.044 A 
HETATM   23  C   UNL     1       0.370   7.035  26.463  0.00  0.00     0.143 A 
HETATM   24  F   UNL     1      -0.259   6.399  25.464  0.00  0.00    -0.204 F 
ENDBRANCH   7  18
TORSDOF 4
ENDMDL
MODEL 5
REMARK minimizedAffinity -5.53580141
REMARK minimizedRMSD -1
REMARK  4 active torsions:
REMARK  status: ('A' for Active; 'I' for Inactive)
REMARK    1  A    between atoms: O_1  and  C_2 
REMARK    2  A    between atoms: C_5  and  C_6 
REMARK    3  A    between atoms: N_12  and  C_13 
REMARK    4  A    between atoms: C_20  and  O_21 
ROOT
HETATM    1  C   UNL     1       0.538   8.301  25.918  0.00  0.00     0.170 A 
HETATM    2  N   UNL     1       0.344   7.659  27.045  0.00  0.00    -0.153 NA
HETATM    3  N   UNL     1      -0.391   8.490  27.810  0.00  0.00    -0.251 N 
HETATM    4  H   UNL     1      -0.769   8.203  28.711  0.00  0.00     0.191 HD
HETATM    5  C   UNL     1      -0.704   9.649  27.123  0.00  0.00     0.201 A 
HETATM    6  S   UNL     1      -1.767  10.752  27.772  0.00  0.00    -0.038 SA
HETATM    7  N   UNL     1      -0.045   9.560  25.897  0.00  0.00    -0.266 N 
ENDROOT
BRANCH   1   8
HETATM    8  C   UNL     1       1.304   7.620  24.842  0.00  0.00     0.045 C 
HETATM    9  C   UNL     1       0.532   6.830  23.962  0.00  0.00     0.021 C 
HETATM   10  C   UNL     1       1.098   6.235  22.835  0.00  0.00     0.037 C 
HETATM   11  C   UNL     1       2.441   6.441  22.568  0.00  0.00     0.068 C 
HETATM   12  C   UNL     1       3.241   7.147  23.463  0.00  0.00     0.074 C 
HETATM   13  C   UNL     1       2.684   7.680  24.630  0.00  0.00     0.082 C 
BRANCH  11  14
HETATM   14  O   UNL     1       3.018   5.959  21.429  0.00  0.00    -0.361 OA
HETATM   15  H   UNL     1       2.326   5.569  20.870  0.00  0.00     0.217 HD
ENDBRANCH  11  14
BRANCH  13  16
HETATM   16  O   UNL     1       3.577   8.222  25.510  0.00  0.00    -0.360 OA
HETATM   17  H   UNL     1       3.153   8.311  26.380  0.00  0.00     0.217 HD
ENDBRANCH  13  16
ENDBRANCH   1   8
BRANCH   7  18
HETATM   18  C   UNL     1      -0.037  10.564  24.881  0.00  0.00     0.082 A 
HETATM   19  C   UNL     1      -1.236  10.916  24.228  0.00  0.00     0.033 A 
HETATM   20  C   UNL     1      -1.299  11.989  23.332  0.00  0.00     0.002 A 
HETATM   21  C   UNL     1      -0.170  12.763  23.094  0.00  0.00     0.003 A 
HETATM   22  C   UNL     1       1.036  12.407  23.690  0.00  0.00     0.044 A 
HETATM   23  C   UNL     1       1.103  11.295  24.532  0.00  0.00     0.143 A 
HETATM   24  F   UNL     1       2.312  10.927  24.979  0.00  0.00    -0.204 F 
ENDBRANCH   7  18
TORSDOF 4
ENDMDL
MODEL 6
REMARK minimizedAffinity -5.41460276
REMARK minimizedRMSD -1
REMARK  4 active torsions:
REMARK  status: ('A' for Active; 'I' for Inactive)
REMARK    1  A    between atoms: O_1  and  C_2 
REMARK    2  A    between atoms: C_5  and  C_6 
REMARK    3  A    between atoms: N_12  and  C_13 
REMARK    4  A    between atoms: C_20  and  O_21 
ROOT
HETATM    1  C   UNL     1       1.875   6.205  23.578  0.00  0.00     0.170 A 
HETATM    2  N   UNL     1       1.073   6.468  22.575  0.00  0.00    -0.153 NA
HETATM    3  N   UNL     1       1.554   5.760  21.535  0.00  0.00    -0.251 N 
HETATM    4  H   UNL     1       1.063   5.705  20.644  0.00  0.00     0.191 HD
HETATM    5  C   UNL     1       2.646   4.999  21.916  0.00  0.00     0.201 A 
HETATM    6  S   UNL     1       3.303   3.886  20.869  0.00  0.00    -0.038 SA
HETATM    7  N   UNL     1       2.902   5.334  23.245  0.00  0.00    -0.266 N 
ENDROOT
BRANCH   1   8
HETATM    8  C   UNL     1       1.583   6.827  24.896  0.00  0.00     0.045 C 
HETATM    9  C   UNL     1       0.298   6.556  25.416  0.00  0.00     0.021 C 
HETATM   10  C   UNL     1      -0.067   6.971  26.697  0.00  0.00     0.037 C 
HETATM   11  C   UNL     1       0.858   7.645  27.477  0.00  0.00     0.068 C 
HETATM   12  C   UNL     1       2.101   7.995  26.956  0.00  0.00     0.074 C 
HETATM   13  C   UNL     1       2.436   7.641  25.645  0.00  0.00     0.082 C 
BRANCH  11  14
HETATM   14  O   UNL     1       0.579   7.987  28.767  0.00  0.00    -0.361 OA
HETATM   15  H   UNL     1      -0.280   7.606  29.013  0.00  0.00     0.217 HD
ENDBRANCH  11  14
BRANCH  13  16
HETATM   16  O   UNL     1       3.612   8.160  25.182  0.00  0.00    -0.360 OA
HETATM   17  H   UNL     1       3.628   8.096  24.212  0.00  0.00     0.217 HD
ENDBRANCH  13  16
ENDBRANCH   1   8
BRANCH   7  18
HETATM   18  C   UNL     1       3.980   4.831  24.037  0.00  0.00     0.082 A 
HETATM   19  C   UNL     1       3.711   4.087  25.203  0.00  0.00     0.033 A 
HETATM   20  C   UNL     1       4.731   3.458  25.927  0.00  0.00     0.002 A 
HETATM   21  C   UNL     1       6.045   3.526  25.479  0.00  0.00     0.003 A 
HETATM   22  C   UNL     1       6.342   4.293  24.357  0.00  0.00     0.044 A 
HETATM   23  C   UNL     1       5.324   4.970  23.679  0.00  0.00     0.143 A 
HETATM   24  F   UNL     1       5.684   5.791  22.682  0.00  0.00    -0.204 F 
ENDBRANCH   7  18
TORSDOF 4
ENDMDL
MODEL 7
REMARK minimizedAffinity -5.40411091
REMARK minimizedRMSD -1
REMARK  4 active torsions:
REMARK  status: ('A' for Active; 'I' for Inactive)
REMARK    1  A    between atoms: O_1  and  C_2 
REMARK    2  A    between atoms: C_5  and  C_6 
REMARK    3  A    between atoms: N_12  and  C_13 
REMARK    4  A    between atoms: C_20  and  O_21 
ROOT
HETATM    1  C   UNL     1      -1.351  10.730  24.712  0.00  0.00     0.170 A 
HETATM    2  N   UNL     1      -2.624  10.798  24.405  0.00  0.00    -0.153 NA
HETATM    3  N   UNL     1      -2.703  11.691  23.399  0.00  0.00    -0.251 N 
HETATM    4  H   UNL     1      -3.573  11.868  22.899  0.00  0.00     0.191 HD
HETATM    5  C   UNL     1      -1.446  12.144  23.039  0.00  0.00     0.201 A 
HETATM    6  S   UNL     1      -1.250  13.102  21.693  0.00  0.00    -0.038 SA
HETATM    7  N   UNL     1      -0.555  11.562  23.940  0.00  0.00    -0.266 N 
ENDROOT
BRANCH   1   8
HETATM    8  C   UNL     1      -0.936   9.791  25.787  0.00  0.00     0.045 C 
HETATM    9  C   UNL     1      -0.422   8.555  25.339  0.00  0.00     0.021 C 
HETATM   10  C   UNL     1       0.121   7.629  26.231  0.00  0.00     0.037 C 
HETATM   11  C   UNL     1       0.169   7.941  27.580  0.00  0.00     0.068 C 
HETATM   12  C   UNL     1      -0.405   9.117  28.055  0.00  0.00     0.074 C 
HETATM   13  C   UNL     1      -1.013  10.009  27.165  0.00  0.00     0.082 C 
BRANCH  11  14
HETATM   14  O   UNL     1       0.775   7.111  28.476  0.00  0.00    -0.361 OA
HETATM   15  H   UNL     1       1.199   6.383  27.992  0.00  0.00     0.217 HD
ENDBRANCH  11  14
BRANCH  13  16
HETATM   16  O   UNL     1      -1.676  11.054  27.746  0.00  0.00    -0.360 OA
HETATM   17  H   UNL     1      -2.279  11.449  27.094  0.00  0.00     0.217 HD
ENDBRANCH  13  16
ENDBRANCH   1   8
BRANCH   7  18
HETATM   18  C   UNL     1       0.854  11.793  23.983  0.00  0.00     0.082 A 
HETATM   19  C   UNL     1       1.750  10.715  23.837  0.00  0.00     0.033 A 
HETATM   20  C   UNL     1       3.131  10.914  23.731  0.00  0.00     0.002 A 
HETATM   21  C   UNL     1       3.650  12.204  23.730  0.00  0.00     0.003 A 
HETATM   22  C   UNL     1       2.791  13.282  23.921  0.00  0.00     0.044 A 
HETATM   23  C   UNL     1       1.421  13.067  24.091  0.00  0.00     0.143 A 
HETATM   24  F   UNL     1       0.660  14.129  24.393  0.00  0.00    -0.204 F 
ENDBRANCH   7  18
TORSDOF 4
ENDMDL
MODEL 8
REMARK minimizedAffinity -5.38439131
REMARK minimizedRMSD -1
REMARK  4 active torsions:
REMARK  status: ('A' for Active; 'I' for Inactive)
REMARK    1  A    between atoms: O_1  and  C_2 
REMARK    2  A    between atoms: C_5  and  C_6 
REMARK    3  A    between atoms: N_12  and  C_13 
REMARK    4  A    between atoms: C_20  and  O_21 
ROOT
HETATM    1  C   UNL     1      -1.127  10.246  24.922  0.00  0.00     0.170 A 
HETATM    2  N   UNL     1      -2.428  10.329  24.785  0.00  0.00    -0.153 NA
HETATM    3  N   UNL     1      -2.635  11.358  23.940  0.00  0.00    -0.251 N 
HETATM    4  H   UNL     1      -3.562  11.585  23.582  0.00  0.00     0.191 HD
HETATM    5  C   UNL     1      -1.435  11.889  23.502  0.00  0.00     0.201 A 
HETATM    6  S   UNL     1      -1.412  13.039  22.300  0.00  0.00    -0.038 SA
HETATM    7  N   UNL     1      -0.437  11.202  24.191  0.00  0.00    -0.266 N 
ENDROOT
BRANCH   1   8
HETATM    8  C   UNL     1      -0.577   9.169  25.786  0.00  0.00     0.045 C 
HETATM    9  C   UNL     1      -0.406   9.517  27.144  0.00  0.00     0.021 C 
HETATM   10  C   UNL     1      -0.018   8.570  28.092  0.00  0.00     0.037 C 
HETATM   11  C   UNL     1       0.186   7.260  27.692  0.00  0.00     0.068 C 
HETATM   12  C   UNL     1       0.104   6.910  26.347  0.00  0.00     0.074 C 
HETATM   13  C   UNL     1      -0.215   7.879  25.389  0.00  0.00     0.082 C 
BRANCH  11  14
HETATM   14  O   UNL     1       0.474   6.281  28.596  0.00  0.00    -0.361 OA
HETATM   15  H   UNL     1       0.413   6.654  29.491  0.00  0.00     0.217 HD
ENDBRANCH  11  14
BRANCH  13  16
HETATM   16  O   UNL     1      -0.122   7.469  24.089  0.00  0.00    -0.360 OA
HETATM   17  H   UNL     1      -0.089   8.250  23.510  0.00  0.00     0.217 HD
ENDBRANCH  13  16
ENDBRANCH   1   8
BRANCH   7  18
HETATM   18  C   UNL     1       0.966  11.457  24.097  0.00  0.00     0.082 A 
HETATM   19  C   UNL     1       1.864  10.393  23.881  0.00  0.00     0.033 A 
HETATM   20  C   UNL     1       3.225  10.614  23.641  0.00  0.00     0.002 A 
HETATM   21  C   UNL     1       3.717  11.912  23.574  0.00  0.00     0.003 A 
HETATM   22  C   UNL     1       2.860  12.978  23.831  0.00  0.00     0.044 A 
HETATM   23  C   UNL     1       1.517  12.742  24.133  0.00  0.00     0.143 A 
HETATM   24  F   UNL     1       0.768  13.795  24.492  0.00  0.00    -0.204 F 
ENDBRANCH   7  18
TORSDOF 4
ENDMDL
MODEL 9
REMARK minimizedAffinity -5.31675196
REMARK minimizedRMSD -1
REMARK  4 active torsions:
REMARK  status: ('A' for Active; 'I' for Inactive)
REMARK    1  A    between atoms: O_1  and  C_2 
REMARK    2  A    between atoms: C_5  and  C_6 
REMARK    3  A    between atoms: N_12  and  C_13 
REMARK    4  A    between atoms: C_20  and  O_21 
ROOT
HETATM    1  C   UNL     1       2.312   9.678  24.108  0.00  0.00     0.170 A 
HETATM    2  N   UNL     1       3.388  10.108  23.494  0.00  0.00    -0.153 NA
HETATM    3  N   UNL     1       3.246  11.445  23.414  0.00  0.00    -0.251 N 
HETATM    4  H   UNL     1       3.989  12.048  23.064  0.00  0.00     0.191 HD
HETATM    5  C   UNL     1       2.083  11.859  24.040  0.00  0.00     0.201 A 
HETATM    6  S   UNL     1       1.772  13.478  24.254  0.00  0.00    -0.038 SA
HETATM    7  N   UNL     1       1.431  10.695  24.446  0.00  0.00    -0.266 N 
ENDROOT
BRANCH   1   8
HETATM    8  C   UNL     1       2.188   8.221  24.375  0.00  0.00     0.045 C 
HETATM    9  C   UNL     1       1.592   7.470  23.339  0.00  0.00     0.021 C 
HETATM   10  C   UNL     1       1.524   6.077  23.400  0.00  0.00     0.037 C 
HETATM   11  C   UNL     1       2.070   5.424  24.492  0.00  0.00     0.068 C 
HETATM   12  C   UNL     1       2.590   6.146  25.562  0.00  0.00     0.074 C 
HETATM   13  C   UNL     1       2.589   7.545  25.530  0.00  0.00     0.082 C 
BRANCH  11  14
HETATM   14  O   UNL     1       2.113   4.062  24.551  0.00  0.00    -0.361 OA
HETATM   15  H   UNL     1       1.797   3.702  23.706  0.00  0.00     0.217 HD
ENDBRANCH  11  14
BRANCH  13  16
HETATM   16  O   UNL     1       2.980   8.157  26.687  0.00  0.00    -0.360 OA
HETATM   17  H   UNL     1       2.692   9.085  26.669  0.00  0.00     0.217 HD
ENDBRANCH  13  16
ENDBRANCH   1   8
BRANCH   7  18
HETATM   18  C   UNL     1       0.156  10.636  25.088  0.00  0.00     0.082 A 
HETATM   19  C   UNL     1       0.053  10.158  26.410  0.00  0.00     0.033 A 
HETATM   20  C   UNL     1      -1.149  10.218  27.124  0.00  0.00     0.002 A 
HETATM   21  C   UNL     1      -2.274  10.792  26.544  0.00  0.00     0.003 A 
HETATM   22  C   UNL     1      -2.211  11.228  25.224  0.00  0.00     0.044 A 
HETATM   23  C   UNL     1      -1.023  11.104  24.499  0.00  0.00     0.143 A 
HETATM   24  F   UNL     1      -1.054  11.426  23.198  0.00  0.00    -0.204 F 
ENDBRANCH   7  18
TORSDOF 4
ENDMDL
