MODEL 1
REMARK VINA RESULT:    -9.889      0.000      0.000
REMARK INTER + INTRA:         -15.119
REMARK INTER:                 -13.227
REMARK INTRA:                  -1.891
REMARK UNBOUND:                -1.183
REMARK  8 active torsions:
REMARK  status: ('A' for Active; 'I' for Inactive)
REMARK    1  A    between atoms: O_2  and  C_3 
REMARK    2  A    between atoms: C_6  and  C_7 
REMARK    3  A    between atoms: C_7  and  N_8 
REMARK       I    between atoms: N_8  and  C_10 
REMARK    4  A    between atoms: C_10  and  C_12 
REMARK    5  A    between atoms: C_14  and  C_15 
REMARK    6  A    between atoms: N_21  and  C_22 
REMARK    7  A    between atoms: C_29  and  O_30 
REMARK    8  A    between atoms: C_32  and  O_33 
ROOT
HETATM    1  C   UNL     1      -2.673  13.603  21.231  0.00  0.00     0.066 C 
HETATM    2  C   UNL     1      -1.553  14.465  21.320  0.00  0.00     0.038 C 
HETATM    3  C   UNL     1      -1.528  15.692  20.647  0.00  0.00     0.046 C 
HETATM    4  C   UNL     1      -2.713  16.161  20.065  0.00  0.00     0.082 C 
HETATM    5  C   UNL     1      -3.793  15.313  19.888  0.00  0.00     0.075 C 
HETATM    6  C   UNL     1      -3.722  14.012  20.383  0.00  0.00     0.084 C 
ENDROOT
BRANCH   3   7
HETATM    7  C   UNL     1      -0.307  16.524  20.519  0.00  0.00     0.172 A 
HETATM    8  N   UNL     1      -0.198  17.363  19.515  0.00  0.00    -0.151 NA
HETATM    9  N   UNL     1       1.042  17.909  19.662  0.00  0.00    -0.226 N 
HETATM   10  H   UNL     1       1.470  18.493  18.958  0.00  0.00     0.194 HD
HETATM   11  C   UNL     1       1.719  17.328  20.726  0.00  0.00     0.349 A 
HETATM   12  O   UNL     1       2.903  17.503  20.952  0.00  0.00    -0.245 OA
HETATM   13  N   UNL     1       0.800  16.490  21.339  0.00  0.00    -0.244 N 
BRANCH  13  14
HETATM   14  C   UNL     1       1.129  15.654  22.435  0.00  0.00     0.051 A 
HETATM   15  C   UNL     1       0.724  16.004  23.735  0.00  0.00     0.031 A 
HETATM   16  C   UNL     1       1.106  15.236  24.843  0.00  0.00     0.002 A 
HETATM   17  C   UNL     1       1.937  14.134  24.675  0.00  0.00     0.001 A 
HETATM   18  C   UNL     1       2.304  13.743  23.393  0.00  0.00     0.009 A 
HETATM   19  C   UNL     1       1.871  14.460  22.261  0.00  0.00    -0.035 A 
HETATM   20  C   UNL     1       2.179  13.847  20.920  0.00  0.00     0.050 C 
ENDBRANCH  13  14
ENDBRANCH   3   7
BRANCH   4  21
HETATM   21  O   UNL     1      -2.886  17.452  19.647  0.00  0.00    -0.360 OA
HETATM   22  H   UNL     1      -3.574  17.867  20.214  0.00  0.00     0.217 HD
ENDBRANCH   4  21
BRANCH   1  23
HETATM   23  C   UNL     1      -2.893  12.393  22.091  0.00  0.00     0.256 C 
HETATM   24  N   UNL     1      -3.411  12.445  23.390  0.00  0.00    -0.348 N 
HETATM   25  C   UNL     1      -3.828  13.628  24.110  0.00  0.00     0.153 C 
HETATM   26  O   UNL     1      -2.668  11.301  21.568  0.00  0.00    -0.267 OA
BRANCH  24  27
HETATM   27  C   UNL     1      -3.730  11.165  24.025  0.00  0.00     0.164 C 
BRANCH  27  28
HETATM   28  C   UNL     1      -2.772  10.759  25.126  0.00  0.00    -0.040 A 
HETATM   29  C   UNL     1      -3.076  10.967  26.477  0.00  0.00     0.011 A 
HETATM   30  C   UNL     1      -2.238  10.467  27.480  0.00  0.00     0.037 A 
HETATM   31  C   UNL     1      -1.099   9.732  27.148  0.00  0.00     0.068 A 
HETATM   32  C   UNL     1      -0.750   9.583  25.807  0.00  0.00     0.037 A 
HETATM   33  C   UNL     1      -1.576  10.102  24.805  0.00  0.00     0.011 A 
BRANCH  31  34
HETATM   34  O   UNL     1      -0.382   9.232  28.201  0.00  0.00    -0.356 OA
HETATM   35  C   UNL     1       0.896   8.702  27.854  0.00  0.00     0.210 C 
ENDBRANCH  31  34
ENDBRANCH  27  28
ENDBRANCH  24  27
ENDBRANCH   1  23
BRANCH   6  36
HETATM   36  O   UNL     1      -4.700  13.127  19.999  0.00  0.00    -0.360 OA
HETATM   37  H   UNL     1      -4.300  12.371  19.537  0.00  0.00     0.217 HD
ENDBRANCH   6  36
TORSDOF 8
ENDMDL
MODEL 2
REMARK VINA RESULT:    -9.470      1.652      2.041
REMARK INTER + INTRA:         -14.528
REMARK INTER:                 -12.754
REMARK INTRA:                  -1.773
REMARK UNBOUND:                -1.183
REMARK  8 active torsions:
REMARK  status: ('A' for Active; 'I' for Inactive)
REMARK    1  A    between atoms: O_2  and  C_3 
REMARK    2  A    between atoms: C_6  and  C_7 
REMARK    3  A    between atoms: C_7  and  N_8 
REMARK       I    between atoms: N_8  and  C_10 
REMARK    4  A    between atoms: C_10  and  C_12 
REMARK    5  A    between atoms: C_14  and  C_15 
REMARK    6  A    between atoms: N_21  and  C_22 
REMARK    7  A    between atoms: C_29  and  O_30 
REMARK    8  A    between atoms: C_32  and  O_33 
ROOT
HETATM    1  C   UNL     1      -2.960  13.787  21.102  0.00  0.00     0.066 C 
HETATM    2  C   UNL     1      -1.837  14.639  21.238  0.00  0.00     0.038 C 
HETATM    3  C   UNL     1      -1.722  15.812  20.483  0.00  0.00     0.046 C 
HETATM    4  C   UNL     1      -2.835  16.250  19.753  0.00  0.00     0.082 C 
HETATM    5  C   UNL     1      -3.909  15.405  19.532  0.00  0.00     0.075 C 
HETATM    6  C   UNL     1      -3.913  14.144  20.126  0.00  0.00     0.084 C 
ENDROOT
BRANCH   3   7
HETATM    7  C   UNL     1      -0.478  16.616  20.416  0.00  0.00     0.172 A 
HETATM    8  N   UNL     1      -0.317  17.479  19.440  0.00  0.00    -0.151 NA
HETATM    9  N   UNL     1       0.930  17.990  19.640  0.00  0.00    -0.226 N 
HETATM   10  H   UNL     1       1.394  18.583  18.967  0.00  0.00     0.194 HD
HETATM   11  C   UNL     1       1.559  17.363  20.707  0.00  0.00     0.349 A 
HETATM   12  O   UNL     1       2.739  17.503  20.975  0.00  0.00    -0.245 OA
HETATM   13  N   UNL     1       0.601  16.532  21.268  0.00  0.00    -0.244 N 
BRANCH  13  14
HETATM   14  C   UNL     1       0.875  15.658  22.350  0.00  0.00     0.051 A 
HETATM   15  C   UNL     1       0.481  16.004  23.654  0.00  0.00     0.031 A 
HETATM   16  C   UNL     1       0.813  15.195  24.749  0.00  0.00     0.002 A 
HETATM   17  C   UNL     1       1.582  14.052  24.564  0.00  0.00     0.001 A 
HETATM   18  C   UNL     1       1.937  13.667  23.277  0.00  0.00     0.009 A 
HETATM   19  C   UNL     1       1.552  14.428  22.157  0.00  0.00    -0.035 A 
HETATM   20  C   UNL     1       1.835  13.825  20.805  0.00  0.00     0.050 C 
ENDBRANCH  13  14
ENDBRANCH   3   7
BRANCH   4  21
HETATM   21  O   UNL     1      -2.941  17.508  19.227  0.00  0.00    -0.360 OA
HETATM   22  H   UNL     1      -3.092  18.138  19.967  0.00  0.00     0.217 HD
ENDBRANCH   4  21
BRANCH   1  23
HETATM   23  C   UNL     1      -3.288  12.648  22.022  0.00  0.00     0.256 C 
HETATM   24  N   UNL     1      -2.436  11.560  22.249  0.00  0.00    -0.348 N 
HETATM   25  C   UNL     1      -1.127  11.351  21.673  0.00  0.00     0.153 C 
HETATM   26  O   UNL     1      -4.339  12.741  22.657  0.00  0.00    -0.267 OA
BRANCH  24  27
HETATM   27  C   UNL     1      -2.826  10.627  23.307  0.00  0.00     0.164 C 
BRANCH  27  28
HETATM   28  C   UNL     1      -2.800  11.218  24.701  0.00  0.00    -0.040 A 
HETATM   29  C   UNL     1      -1.754  12.046  25.128  0.00  0.00     0.011 A 
HETATM   30  C   UNL     1      -1.815  12.684  26.372  0.00  0.00     0.037 A 
HETATM   31  C   UNL     1      -2.931  12.524  27.195  0.00  0.00     0.068 A 
HETATM   32  C   UNL     1      -3.941  11.645  26.811  0.00  0.00     0.037 A 
HETATM   33  C   UNL     1      -3.870  10.989  25.577  0.00  0.00     0.011 A 
BRANCH  31  34
HETATM   34  O   UNL     1      -2.923  13.241  28.361  0.00  0.00    -0.356 OA
HETATM   35  C   UNL     1      -2.197  14.467  28.302  0.00  0.00     0.210 C 
ENDBRANCH  31  34
ENDBRANCH  27  28
ENDBRANCH  24  27
ENDBRANCH   1  23
BRANCH   6  36
HETATM   36  O   UNL     1      -4.866  13.246  19.713  0.00  0.00    -0.360 OA
HETATM   37  H   UNL     1      -5.503  13.085  20.428  0.00  0.00     0.217 HD
ENDBRANCH   6  36
TORSDOF 8
ENDMDL
MODEL 3
REMARK VINA RESULT:    -9.132      2.426      6.874
REMARK INTER + INTRA:         -14.052
REMARK INTER:                 -12.614
REMARK INTRA:                  -1.437
REMARK UNBOUND:                -1.183
REMARK  8 active torsions:
REMARK  status: ('A' for Active; 'I' for Inactive)
REMARK    1  A    between atoms: O_2  and  C_3 
REMARK    2  A    between atoms: C_6  and  C_7 
REMARK    3  A    between atoms: C_7  and  N_8 
REMARK       I    between atoms: N_8  and  C_10 
REMARK    4  A    between atoms: C_10  and  C_12 
REMARK    5  A    between atoms: C_14  and  C_15 
REMARK    6  A    between atoms: N_21  and  C_22 
REMARK    7  A    between atoms: C_29  and  O_30 
REMARK    8  A    between atoms: C_32  and  O_33 
ROOT
HETATM    1  C   UNL     1      -1.831  15.670  21.697  0.00  0.00     0.066 C 
HETATM    2  C   UNL     1      -2.074  14.719  22.718  0.00  0.00     0.038 C 
HETATM    3  C   UNL     1      -3.331  14.119  22.864  0.00  0.00     0.046 C 
HETATM    4  C   UNL     1      -4.282  14.301  21.851  0.00  0.00     0.082 C 
HETATM    5  C   UNL     1      -4.108  15.284  20.891  0.00  0.00     0.075 C 
HETATM    6  C   UNL     1      -2.929  16.026  20.887  0.00  0.00     0.084 C 
ENDROOT
BRANCH   3   7
HETATM    7  C   UNL     1      -3.707  13.298  24.040  0.00  0.00     0.172 A 
HETATM    8  N   UNL     1      -4.801  13.584  24.706  0.00  0.00    -0.151 NA
HETATM    9  N   UNL     1      -4.815  12.693  25.737  0.00  0.00    -0.226 N 
HETATM   10  H   UNL     1      -5.467  12.754  26.505  0.00  0.00     0.194 HD
HETATM   11  C   UNL     1      -3.666  11.913  25.735  0.00  0.00     0.349 A 
HETATM   12  O   UNL     1      -3.347  11.174  26.649  0.00  0.00    -0.245 OA
HETATM   13  N   UNL     1      -2.990  12.248  24.572  0.00  0.00    -0.244 N 
BRANCH  13  14
HETATM   14  C   UNL     1      -1.721  11.714  24.235  0.00  0.00     0.051 A 
HETATM   15  C   UNL     1      -1.625  10.624  23.353  0.00  0.00     0.031 A 
HETATM   16  C   UNL     1      -0.389  10.028  23.069  0.00  0.00     0.002 A 
HETATM   17  C   UNL     1       0.765  10.483  23.698  0.00  0.00     0.001 A 
HETATM   18  C   UNL     1       0.697  11.592  24.532  0.00  0.00     0.009 A 
HETATM   19  C   UNL     1      -0.525  12.249  24.774  0.00  0.00    -0.035 A 
HETATM   20  C   UNL     1      -0.452  13.540  25.547  0.00  0.00     0.050 C 
ENDBRANCH  13  14
ENDBRANCH   3   7
BRANCH   4  21
HETATM   21  O   UNL     1      -5.414  13.542  21.737  0.00  0.00    -0.360 OA
HETATM   22  H   UNL     1      -5.332  12.778  22.351  0.00  0.00     0.217 HD
ENDBRANCH   4  21
BRANCH   1  23
HETATM   23  C   UNL     1      -0.475  16.187  21.313  0.00  0.00     0.256 C 
HETATM   24  N   UNL     1       0.638  15.366  21.098  0.00  0.00    -0.348 N 
HETATM   25  C   UNL     1       0.682  13.924  21.187  0.00  0.00     0.153 C 
HETATM   26  O   UNL     1      -0.388  17.398  21.109  0.00  0.00    -0.267 OA
BRANCH  24  27
HETATM   27  C   UNL     1       1.837  16.010  20.557  0.00  0.00     0.164 C 
BRANCH  27  28
HETATM   28  C   UNL     1       3.135  15.521  21.164  0.00  0.00    -0.040 A 
HETATM   29  C   UNL     1       4.332  15.525  20.436  0.00  0.00     0.011 A 
HETATM   30  C   UNL     1       5.542  15.193  21.056  0.00  0.00     0.037 A 
HETATM   31  C   UNL     1       5.577  14.874  22.414  0.00  0.00     0.068 A 
HETATM   32  C   UNL     1       4.382  14.795  23.127  0.00  0.00     0.037 A 
HETATM   33  C   UNL     1       3.170  15.106  22.502  0.00  0.00     0.011 A 
BRANCH  31  34
HETATM   34  O   UNL     1       6.816  14.627  22.940  0.00  0.00    -0.356 OA
HETATM   35  C   UNL     1       7.610  15.789  23.168  0.00  0.00     0.210 C 
ENDBRANCH  31  34
ENDBRANCH  27  28
ENDBRANCH  24  27
ENDBRANCH   1  23
BRANCH   6  36
HETATM   36  O   UNL     1      -2.875  17.137  20.081  0.00  0.00    -0.360 OA
HETATM   37  H   UNL     1      -2.191  17.748  20.403  0.00  0.00     0.217 HD
ENDBRANCH   6  36
TORSDOF 8
ENDMDL
MODEL 4
REMARK VINA RESULT:    -8.757      3.387      8.114
REMARK INTER + INTRA:         -13.523
REMARK INTER:                 -11.764
REMARK INTRA:                  -1.759
REMARK UNBOUND:                -1.183
REMARK  8 active torsions:
REMARK  status: ('A' for Active; 'I' for Inactive)
REMARK    1  A    between atoms: O_2  and  C_3 
REMARK    2  A    between atoms: C_6  and  C_7 
REMARK    3  A    between atoms: C_7  and  N_8 
REMARK       I    between atoms: N_8  and  C_10 
REMARK    4  A    between atoms: C_10  and  C_12 
REMARK    5  A    between atoms: C_14  and  C_15 
REMARK    6  A    between atoms: N_21  and  C_22 
REMARK    7  A    between atoms: C_29  and  O_30 
REMARK    8  A    between atoms: C_32  and  O_33 
ROOT
HETATM    1  C   UNL     1      -0.256  14.473  24.828  0.00  0.00     0.066 C 
HETATM    2  C   UNL     1      -1.427  13.677  24.799  0.00  0.00     0.038 C 
HETATM    3  C   UNL     1      -2.231  13.530  25.935  0.00  0.00     0.046 C 
HETATM    4  C   UNL     1      -1.988  14.358  27.039  0.00  0.00     0.082 C 
HETATM    5  C   UNL     1      -0.810  15.080  27.132  0.00  0.00     0.075 C 
HETATM    6  C   UNL     1       0.090  15.048  26.069  0.00  0.00     0.084 C 
ENDROOT
BRANCH   3   7
HETATM    7  C   UNL     1      -3.331  12.540  26.029  0.00  0.00     0.172 A 
HETATM    8  N   UNL     1      -4.564  12.917  25.788  0.00  0.00    -0.151 NA
HETATM    9  N   UNL     1      -5.313  11.802  26.017  0.00  0.00    -0.226 N 
HETATM   10  H   UNL     1      -6.322  11.816  26.047  0.00  0.00     0.194 HD
HETATM   11  C   UNL     1      -4.522  10.760  26.483  0.00  0.00     0.349 A 
HETATM   12  O   UNL     1      -4.969   9.721  26.936  0.00  0.00    -0.245 OA
HETATM   13  N   UNL     1      -3.216  11.218  26.401  0.00  0.00    -0.244 N 
BRANCH  13  14
HETATM   14  C   UNL     1      -2.104  10.465  26.855  0.00  0.00     0.051 A 
HETATM   15  C   UNL     1      -1.919  10.237  28.229  0.00  0.00     0.031 A 
HETATM   16  C   UNL     1      -0.785   9.566  28.706  0.00  0.00     0.002 A 
HETATM   17  C   UNL     1       0.204   9.154  27.821  0.00  0.00     0.001 A 
HETATM   18  C   UNL     1       0.015   9.324  26.454  0.00  0.00     0.009 A 
HETATM   19  C   UNL     1      -1.151   9.932  25.951  0.00  0.00    -0.035 A 
HETATM   20  C   UNL     1      -1.332   9.903  24.456  0.00  0.00     0.050 C 
ENDBRANCH  13  14
ENDBRANCH   3   7
BRANCH   4  21
HETATM   21  O   UNL     1      -2.872  14.513  28.072  0.00  0.00    -0.360 OA
HETATM   22  H   UNL     1      -2.654  15.351  28.538  0.00  0.00     0.217 HD
ENDBRANCH   4  21
BRANCH   1  23
HETATM   23  C   UNL     1       0.534  14.880  23.619  0.00  0.00     0.256 C 
HETATM   24  N   UNL     1       0.973  13.984  22.638  0.00  0.00    -0.348 N 
HETATM   25  C   UNL     1       0.743  12.557  22.602  0.00  0.00     0.153 C 
HETATM   26  O   UNL     1       0.724  16.089  23.470  0.00  0.00    -0.267 OA
BRANCH  24  27
HETATM   27  C   UNL     1       1.575  14.564  21.436  0.00  0.00     0.164 C 
BRANCH  27  28
HETATM   28  C   UNL     1       3.071  14.778  21.528  0.00  0.00    -0.040 A 
HETATM   29  C   UNL     1       3.792  15.380  20.489  0.00  0.00     0.011 A 
HETATM   30  C   UNL     1       5.148  15.686  20.648  0.00  0.00     0.037 A 
HETATM   31  C   UNL     1       5.797  15.416  21.854  0.00  0.00     0.068 A 
HETATM   32  C   UNL     1       5.107  14.750  22.865  0.00  0.00     0.037 A 
HETATM   33  C   UNL     1       3.757  14.425  22.698  0.00  0.00     0.011 A 
BRANCH  31  34
HETATM   34  O   UNL     1       7.105  15.811  21.932  0.00  0.00    -0.356 OA
HETATM   35  C   UNL     1       7.620  15.911  23.257  0.00  0.00     0.210 C 
ENDBRANCH  31  34
ENDBRANCH  27  28
ENDBRANCH  24  27
ENDBRANCH   1  23
BRANCH   6  36
HETATM   36  O   UNL     1       1.340  15.578  26.273  0.00  0.00    -0.360 OA
HETATM   37  H   UNL     1       1.521  15.644  27.226  0.00  0.00     0.217 HD
ENDBRANCH   6  36
TORSDOF 8
ENDMDL
MODEL 5
REMARK VINA RESULT:    -8.553      4.092      7.036
REMARK INTER + INTRA:         -13.235
REMARK INTER:                 -11.082
REMARK INTRA:                  -2.153
REMARK UNBOUND:                -1.183
REMARK  8 active torsions:
REMARK  status: ('A' for Active; 'I' for Inactive)
REMARK    1  A    between atoms: O_2  and  C_3 
REMARK    2  A    between atoms: C_6  and  C_7 
REMARK    3  A    between atoms: C_7  and  N_8 
REMARK       I    between atoms: N_8  and  C_10 
REMARK    4  A    between atoms: C_10  and  C_12 
REMARK    5  A    between atoms: C_14  and  C_15 
REMARK    6  A    between atoms: N_21  and  C_22 
REMARK    7  A    between atoms: C_29  and  O_30 
REMARK    8  A    between atoms: C_32  and  O_33 
ROOT
HETATM    1  C   UNL     1      -0.327   8.909  25.344  0.00  0.00     0.066 C 
HETATM    2  C   UNL     1      -0.672   9.830  24.325  0.00  0.00     0.038 C 
HETATM    3  C   UNL     1      -1.578  10.870  24.566  0.00  0.00     0.046 C 
HETATM    4  C   UNL     1      -1.969  11.126  25.886  0.00  0.00     0.082 C 
HETATM    5  C   UNL     1      -1.720  10.201  26.886  0.00  0.00     0.075 C 
HETATM    6  C   UNL     1      -0.990   9.054  26.581  0.00  0.00     0.084 C 
ENDROOT
BRANCH   3   7
HETATM    7  C   UNL     1      -2.146  11.718  23.489  0.00  0.00     0.172 A 
HETATM    8  N   UNL     1      -3.234  11.330  22.866  0.00  0.00    -0.151 NA
HETATM    9  N   UNL     1      -3.444  12.286  21.919  0.00  0.00    -0.226 N 
HETATM   10  H   UNL     1      -4.134  12.192  21.188  0.00  0.00     0.194 HD
HETATM   11  C   UNL     1      -2.417  13.222  21.922  0.00  0.00     0.349 A 
HETATM   12  O   UNL     1      -2.269  14.067  21.057  0.00  0.00    -0.245 OA
HETATM   13  N   UNL     1      -1.621  12.898  23.010  0.00  0.00    -0.244 N 
BRANCH  13  14
HETATM   14  C   UNL     1      -0.418  13.581  23.317  0.00  0.00     0.051 A 
HETATM   15  C   UNL     1       0.788  13.196  22.706  0.00  0.00     0.031 A 
HETATM   16  C   UNL     1       2.002  13.803  23.055  0.00  0.00     0.002 A 
HETATM   17  C   UNL     1       2.037  14.771  24.051  0.00  0.00     0.001 A 
HETATM   18  C   UNL     1       0.848  15.201  24.629  0.00  0.00     0.009 A 
HETATM   19  C   UNL     1      -0.390  14.654  24.242  0.00  0.00    -0.035 A 
HETATM   20  C   UNL     1      -1.622  15.317  24.800  0.00  0.00     0.050 C 
ENDBRANCH  13  14
ENDBRANCH   3   7
BRANCH   4  21
HETATM   21  O   UNL     1      -2.602  12.275  26.274  0.00  0.00    -0.360 OA
HETATM   22  H   UNL     1      -3.195  12.059  27.028  0.00  0.00     0.217 HD
ENDBRANCH   4  21
BRANCH   1  23
HETATM   23  C   UNL     1       0.796   7.918  25.258  0.00  0.00     0.256 C 
HETATM   24  N   UNL     1       2.137   8.238  25.497  0.00  0.00    -0.348 N 
HETATM   25  C   UNL     1       2.666   9.531  25.871  0.00  0.00     0.153 C 
HETATM   26  O   UNL     1       0.478   6.748  25.038  0.00  0.00    -0.267 OA
BRANCH  24  27
HETATM   27  C   UNL     1       3.083   7.122  25.546  0.00  0.00     0.164 C 
BRANCH  27  28
HETATM   28  C   UNL     1       4.034   7.057  24.369  0.00  0.00    -0.040 A 
HETATM   29  C   UNL     1       3.568   7.064  23.049  0.00  0.00     0.011 A 
HETATM   30  C   UNL     1       4.467   7.135  21.978  0.00  0.00     0.037 A 
HETATM   31  C   UNL     1       5.840   7.223  22.213  0.00  0.00     0.068 A 
HETATM   32  C   UNL     1       6.315   7.141  23.520  0.00  0.00     0.037 A 
HETATM   33  C   UNL     1       5.418   7.049  24.589  0.00  0.00     0.011 A 
BRANCH  31  34
HETATM   34  O   UNL     1       6.630   7.353  21.103  0.00  0.00    -0.356 OA
HETATM   35  C   UNL     1       5.966   7.105  19.865  0.00  0.00     0.210 C 
ENDBRANCH  31  34
ENDBRANCH  27  28
ENDBRANCH  24  27
ENDBRANCH   1  23
BRANCH   6  36
HETATM   36  O   UNL     1      -0.952   8.051  27.519  0.00  0.00    -0.360 OA
HETATM   37  H   UNL     1      -0.995   7.185  27.080  0.00  0.00     0.217 HD
ENDBRANCH   6  36
TORSDOF 8
ENDMDL
MODEL 6
REMARK VINA RESULT:    -8.548      2.289      6.594
REMARK INTER + INTRA:         -13.229
REMARK INTER:                 -11.741
REMARK INTRA:                  -1.488
REMARK UNBOUND:                -1.183
REMARK  8 active torsions:
REMARK  status: ('A' for Active; 'I' for Inactive)
REMARK    1  A    between atoms: O_2  and  C_3 
REMARK    2  A    between atoms: C_6  and  C_7 
REMARK    3  A    between atoms: C_7  and  N_8 
REMARK       I    between atoms: N_8  and  C_10 
REMARK    4  A    between atoms: C_10  and  C_12 
REMARK    5  A    between atoms: C_14  and  C_15 
REMARK    6  A    between atoms: N_21  and  C_22 
REMARK    7  A    between atoms: C_29  and  O_30 
REMARK    8  A    between atoms: C_32  and  O_33 
ROOT
HETATM    1  C   UNL     1      -2.363  16.050  21.296  0.00  0.00     0.066 C 
HETATM    2  C   UNL     1      -2.271  15.171  22.403  0.00  0.00     0.038 C 
HETATM    3  C   UNL     1      -3.361  14.386  22.797  0.00  0.00     0.046 C 
HETATM    4  C   UNL     1      -4.474  14.312  21.950  0.00  0.00     0.082 C 
HETATM    5  C   UNL     1      -4.631  15.216  20.913  0.00  0.00     0.075 C 
HETATM    6  C   UNL     1      -3.619  16.141  20.662  0.00  0.00     0.084 C 
ENDROOT
BRANCH   3   7
HETATM    7  C   UNL     1      -3.397  13.626  24.070  0.00  0.00     0.172 A 
HETATM    8  N   UNL     1      -4.534  13.493  24.713  0.00  0.00    -0.151 NA
HETATM    9  N   UNL     1      -4.207  12.809  25.844  0.00  0.00    -0.226 N 
HETATM   10  H   UNL     1      -4.852  12.675  26.609  0.00  0.00     0.194 HD
HETATM   11  C   UNL     1      -2.836  12.599  25.920  0.00  0.00     0.349 A 
HETATM   12  O   UNL     1      -2.268  12.179  26.913  0.00  0.00    -0.245 OA
HETATM   13  N   UNL     1      -2.322  13.053  24.715  0.00  0.00    -0.244 N 
BRANCH  13  14
HETATM   14  C   UNL     1      -0.935  13.076  24.426  0.00  0.00     0.051 A 
HETATM   15  C   UNL     1      -0.110  14.056  25.005  0.00  0.00     0.031 A 
HETATM   16  C   UNL     1       1.248  14.149  24.672  0.00  0.00     0.002 A 
HETATM   17  C   UNL     1       1.792  13.294  23.720  0.00  0.00     0.001 A 
HETATM   18  C   UNL     1       1.005  12.286  23.176  0.00  0.00     0.009 A 
HETATM   19  C   UNL     1      -0.343  12.131  23.552  0.00  0.00    -0.035 A 
HETATM   20  C   UNL     1      -1.047  10.903  23.037  0.00  0.00     0.050 C 
ENDBRANCH  13  14
ENDBRANCH   3   7
BRANCH   4  21
HETATM   21  O   UNL     1      -5.455  13.367  22.077  0.00  0.00    -0.360 OA
HETATM   22  H   UNL     1      -5.086  12.609  22.584  0.00  0.00     0.217 HD
ENDBRANCH   4  21
BRANCH   1  23
HETATM   23  C   UNL     1      -1.199  16.748  20.657  0.00  0.00     0.256 C 
HETATM   24  N   UNL     1      -0.116  17.271  21.373  0.00  0.00    -0.348 N 
HETATM   25  C   UNL     1       0.080  17.224  22.805  0.00  0.00     0.153 C 
HETATM   26  O   UNL     1      -1.187  16.778  19.425  0.00  0.00    -0.267 OA
BRANCH  24  27
HETATM   27  C   UNL     1       1.018  17.761  20.589  0.00  0.00     0.164 C 
BRANCH  27  28
HETATM   28  C   UNL     1       2.301  16.980  20.791  0.00  0.00    -0.040 A 
HETATM   29  C   UNL     1       2.863  16.809  22.062  0.00  0.00     0.011 A 
HETATM   30  C   UNL     1       3.973  15.977  22.242  0.00  0.00     0.037 A 
HETATM   31  C   UNL     1       4.522  15.286  21.161  0.00  0.00     0.068 A 
HETATM   32  C   UNL     1       4.016  15.508  19.882  0.00  0.00     0.037 A 
HETATM   33  C   UNL     1       2.919  16.357  19.698  0.00  0.00     0.011 A 
BRANCH  31  34
HETATM   34  O   UNL     1       5.565  14.449  21.452  0.00  0.00    -0.356 OA
HETATM   35  C   UNL     1       6.420  14.902  22.499  0.00  0.00     0.210 C 
ENDBRANCH  31  34
ENDBRANCH  27  28
ENDBRANCH  24  27
ENDBRANCH   1  23
BRANCH   6  36
HETATM   36  O   UNL     1      -3.892  17.166  19.788  0.00  0.00    -0.360 OA
HETATM   37  H   UNL     1      -3.562  16.942  18.902  0.00  0.00     0.217 HD
ENDBRANCH   6  36
TORSDOF 8
ENDMDL
MODEL 7
REMARK VINA RESULT:    -8.529      3.933      6.659
REMARK INTER + INTRA:         -13.201
REMARK INTER:                 -11.069
REMARK INTRA:                  -2.132
REMARK UNBOUND:                -1.183
REMARK  8 active torsions:
REMARK  status: ('A' for Active; 'I' for Inactive)
REMARK    1  A    between atoms: O_2  and  C_3 
REMARK    2  A    between atoms: C_6  and  C_7 
REMARK    3  A    between atoms: C_7  and  N_8 
REMARK       I    between atoms: N_8  and  C_10 
REMARK    4  A    between atoms: C_10  and  C_12 
REMARK    5  A    between atoms: C_14  and  C_15 
REMARK    6  A    between atoms: N_21  and  C_22 
REMARK    7  A    between atoms: C_29  and  O_30 
REMARK    8  A    between atoms: C_32  and  O_33 
ROOT
HETATM    1  C   UNL     1      -0.696   9.314  25.299  0.00  0.00     0.066 C 
HETATM    2  C   UNL     1      -1.048  10.178  24.233  0.00  0.00     0.038 C 
HETATM    3  C   UNL     1      -1.853  11.302  24.449  0.00  0.00     0.046 C 
HETATM    4  C   UNL     1      -2.123  11.690  25.767  0.00  0.00     0.082 C 
HETATM    5  C   UNL     1      -1.869  10.829  26.821  0.00  0.00     0.075 C 
HETATM    6  C   UNL     1      -1.250   9.607  26.562  0.00  0.00     0.084 C 
ENDROOT
BRANCH   3   7
HETATM    7  C   UNL     1      -2.436  12.107  23.347  0.00  0.00     0.172 A 
HETATM    8  N   UNL     1      -3.643  11.829  22.913  0.00  0.00    -0.151 NA
HETATM    9  N   UNL     1      -3.842  12.698  21.882  0.00  0.00    -0.226 N 
HETATM   10  H   UNL     1      -4.631  12.634  21.256  0.00  0.00     0.194 HD
HETATM   11  C   UNL     1      -2.702  13.455  21.643  0.00  0.00     0.349 A 
HETATM   12  O   UNL     1      -2.555  14.167  20.666  0.00  0.00    -0.245 OA
HETATM   13  N   UNL     1      -1.819  13.130  22.662  0.00  0.00    -0.244 N 
BRANCH  13  14
HETATM   14  C   UNL     1      -0.501  13.645  22.734  0.00  0.00     0.051 A 
HETATM   15  C   UNL     1      -0.187  14.655  23.660  0.00  0.00     0.031 A 
HETATM   16  C   UNL     1       1.088  15.235  23.694  0.00  0.00     0.002 A 
HETATM   17  C   UNL     1       2.055  14.849  22.773  0.00  0.00     0.001 A 
HETATM   18  C   UNL     1       1.779  13.816  21.885  0.00  0.00     0.009 A 
HETATM   19  C   UNL     1       0.528  13.171  21.883  0.00  0.00    -0.035 A 
HETATM   20  C   UNL     1       0.401  11.953  21.005  0.00  0.00     0.050 C 
ENDBRANCH  13  14
ENDBRANCH   3   7
BRANCH   4  21
HETATM   21  O   UNL     1      -2.638  12.913  26.101  0.00  0.00    -0.360 OA
HETATM   22  H   UNL     1      -2.275  13.579  25.475  0.00  0.00     0.217 HD
ENDBRANCH   4  21
BRANCH   1  23
HETATM   23  C   UNL     1       0.341   8.232  25.218  0.00  0.00     0.256 C 
HETATM   24  N   UNL     1       1.711   8.451  25.406  0.00  0.00    -0.348 N 
HETATM   25  C   UNL     1       2.353   9.709  25.717  0.00  0.00     0.153 C 
HETATM   26  O   UNL     1      -0.076   7.085  25.052  0.00  0.00    -0.267 OA
BRANCH  24  27
HETATM   27  C   UNL     1       2.565   7.265  25.471  0.00  0.00     0.164 C 
BRANCH  27  28
HETATM   28  C   UNL     1       3.630   7.202  24.395  0.00  0.00    -0.040 A 
HETATM   29  C   UNL     1       3.298   7.047  23.043  0.00  0.00     0.011 A 
HETATM   30  C   UNL     1       4.287   7.123  22.056  0.00  0.00     0.037 A 
HETATM   31  C   UNL     1       5.614   7.378  22.402  0.00  0.00     0.068 A 
HETATM   32  C   UNL     1       5.964   7.459  23.749  0.00  0.00     0.037 A 
HETATM   33  C   UNL     1       4.979   7.362  24.737  0.00  0.00     0.011 A 
BRANCH  31  34
HETATM   34  O   UNL     1       6.493   7.498  21.360  0.00  0.00    -0.356 OA
HETATM   35  C   UNL     1       5.975   7.096  20.094  0.00  0.00     0.210 C 
ENDBRANCH  31  34
ENDBRANCH  27  28
ENDBRANCH  24  27
ENDBRANCH   1  23
BRANCH   6  36
HETATM   36  O   UNL     1      -1.216   8.680  27.575  0.00  0.00    -0.360 OA
HETATM   37  H   UNL     1      -0.738   7.886  27.283  0.00  0.00     0.217 HD
ENDBRANCH   6  36
TORSDOF 8
ENDMDL
MODEL 8
REMARK VINA RESULT:    -8.517      3.199      8.050
REMARK INTER + INTRA:         -13.185
REMARK INTER:                 -12.003
REMARK INTRA:                  -1.183
REMARK UNBOUND:                -1.183
REMARK  8 active torsions:
REMARK  status: ('A' for Active; 'I' for Inactive)
REMARK    1  A    between atoms: O_2  and  C_3 
REMARK    2  A    between atoms: C_6  and  C_7 
REMARK    3  A    between atoms: C_7  and  N_8 
REMARK       I    between atoms: N_8  and  C_10 
REMARK    4  A    between atoms: C_10  and  C_12 
REMARK    5  A    between atoms: C_14  and  C_15 
REMARK    6  A    between atoms: N_21  and  C_22 
REMARK    7  A    between atoms: C_29  and  O_30 
REMARK    8  A    between atoms: C_32  and  O_33 
ROOT
HETATM    1  C   UNL     1      -0.055  14.675  24.930  0.00  0.00     0.066 C 
HETATM    2  C   UNL     1      -1.263  13.945  24.817  0.00  0.00     0.038 C 
HETATM    3  C   UNL     1      -2.132  13.810  25.907  0.00  0.00     0.046 C 
HETATM    4  C   UNL     1      -1.904  14.592  27.046  0.00  0.00     0.082 C 
HETATM    5  C   UNL     1      -0.696  15.246  27.221  0.00  0.00     0.075 C 
HETATM    6  C   UNL     1       0.255  15.196  26.204  0.00  0.00     0.084 C 
ENDROOT
BRANCH   3   7
HETATM    7  C   UNL     1      -3.286  12.878  25.915  0.00  0.00     0.172 A 
HETATM    8  N   UNL     1      -3.831  12.532  27.058  0.00  0.00    -0.151 NA
HETATM    9  N   UNL     1      -4.803  11.641  26.716  0.00  0.00    -0.226 N 
HETATM   10  H   UNL     1      -5.307  11.092  27.397  0.00  0.00     0.194 HD
HETATM   11  C   UNL     1      -4.786  11.386  25.351  0.00  0.00     0.349 A 
HETATM   12  O   UNL     1      -5.424  10.494  24.820  0.00  0.00    -0.245 OA
HETATM   13  N   UNL     1      -3.855  12.266  24.819  0.00  0.00    -0.244 N 
BRANCH  13  14
HETATM   14  C   UNL     1      -3.493  12.272  23.449  0.00  0.00     0.051 A 
HETATM   15  C   UNL     1      -2.769  11.196  22.906  0.00  0.00     0.031 A 
HETATM   16  C   UNL     1      -2.330  11.218  21.575  0.00  0.00     0.002 A 
HETATM   17  C   UNL     1      -2.567  12.333  20.780  0.00  0.00     0.001 A 
HETATM   18  C   UNL     1      -3.325  13.384  21.284  0.00  0.00     0.009 A 
HETATM   19  C   UNL     1      -3.836  13.350  22.596  0.00  0.00    -0.035 A 
HETATM   20  C   UNL     1      -4.790  14.453  22.974  0.00  0.00     0.050 C 
ENDBRANCH  13  14
ENDBRANCH   3   7
BRANCH   4  21
HETATM   21  O   UNL     1      -2.831  14.766  28.037  0.00  0.00    -0.360 OA
HETATM   22  H   UNL     1      -2.376  15.153  28.817  0.00  0.00     0.217 HD
ENDBRANCH   4  21
BRANCH   1  23
HETATM   23  C   UNL     1       0.816  15.073  23.775  0.00  0.00     0.256 C 
HETATM   24  N   UNL     1       1.245  14.185  22.781  0.00  0.00    -0.348 N 
HETATM   25  C   UNL     1       0.926  12.779  22.680  0.00  0.00     0.153 C 
HETATM   26  O   UNL     1       1.091  16.270  23.682  0.00  0.00    -0.267 OA
BRANCH  24  27
HETATM   27  C   UNL     1       1.940  14.767  21.633  0.00  0.00     0.164 C 
BRANCH  27  28
HETATM   28  C   UNL     1       3.440  14.882  21.803  0.00  0.00    -0.040 A 
HETATM   29  C   UNL     1       4.252  15.436  20.805  0.00  0.00     0.011 A 
HETATM   30  C   UNL     1       5.615  15.652  21.036  0.00  0.00     0.037 A 
HETATM   31  C   UNL     1       6.181  15.340  22.273  0.00  0.00     0.068 A 
HETATM   32  C   UNL     1       5.397  14.721  23.244  0.00  0.00     0.037 A 
HETATM   33  C   UNL     1       4.040  14.485  23.006  0.00  0.00     0.011 A 
BRANCH  31  34
HETATM   34  O   UNL     1       7.506  15.649  22.420  0.00  0.00    -0.356 OA
HETATM   35  C   UNL     1       7.774  17.026  22.673  0.00  0.00     0.210 C 
ENDBRANCH  31  34
ENDBRANCH  27  28
ENDBRANCH  24  27
ENDBRANCH   1  23
BRANCH   6  36
HETATM   36  O   UNL     1       1.519  15.650  26.487  0.00  0.00    -0.360 OA
HETATM   37  H   UNL     1       1.924  16.026  25.687  0.00  0.00     0.217 HD
ENDBRANCH   6  36
TORSDOF 8
ENDMDL
MODEL 9
REMARK VINA RESULT:    -8.415      2.763      7.933
REMARK INTER + INTRA:         -13.041
REMARK INTER:                 -11.652
REMARK INTRA:                  -1.389
REMARK UNBOUND:                -1.183
REMARK  8 active torsions:
REMARK  status: ('A' for Active; 'I' for Inactive)
REMARK    1  A    between atoms: O_2  and  C_3 
REMARK    2  A    between atoms: C_6  and  C_7 
REMARK    3  A    between atoms: C_7  and  N_8 
REMARK       I    between atoms: N_8  and  C_10 
REMARK    4  A    between atoms: C_10  and  C_12 
REMARK    5  A    between atoms: C_14  and  C_15 
REMARK    6  A    between atoms: N_21  and  C_22 
REMARK    7  A    between atoms: C_29  and  O_30 
REMARK    8  A    between atoms: C_32  and  O_33 
ROOT
HETATM    1  C   UNL     1      -2.492  12.543  24.498  0.00  0.00     0.066 C 
HETATM    2  C   UNL     1      -1.786  11.666  25.357  0.00  0.00     0.038 C 
HETATM    3  C   UNL     1      -2.437  10.986  26.392  0.00  0.00     0.046 C 
HETATM    4  C   UNL     1      -3.838  11.008  26.432  0.00  0.00     0.082 C 
HETATM    5  C   UNL     1      -4.549  11.917  25.666  0.00  0.00     0.075 C 
HETATM    6  C   UNL     1      -3.859  12.745  24.782  0.00  0.00     0.084 C 
ENDROOT
BRANCH   3   7
HETATM    7  C   UNL     1      -1.718  10.240  27.453  0.00  0.00     0.172 A 
HETATM    8  N   UNL     1      -2.028  10.445  28.712  0.00  0.00    -0.151 NA
HETATM    9  N   UNL     1      -1.156   9.663  29.409  0.00  0.00    -0.226 N 
HETATM   10  H   UNL     1      -1.056   9.713  30.412  0.00  0.00     0.194 HD
HETATM   11  C   UNL     1      -0.254   9.041  28.554  0.00  0.00     0.349 A 
HETATM   12  O   UNL     1       0.736   8.442  28.935  0.00  0.00    -0.245 OA
HETATM   13  N   UNL     1      -0.683   9.348  27.272  0.00  0.00    -0.244 N 
BRANCH  13  14
HETATM   14  C   UNL     1       0.021   8.953  26.107  0.00  0.00     0.051 A 
HETATM   15  C   UNL     1       0.806   9.884  25.407  0.00  0.00     0.031 A 
HETATM   16  C   UNL     1       1.444   9.538  24.209  0.00  0.00     0.002 A 
HETATM   17  C   UNL     1       1.271   8.269  23.667  0.00  0.00     0.001 A 
HETATM   18  C   UNL     1       0.541   7.319  24.372  0.00  0.00     0.009 A 
HETATM   19  C   UNL     1      -0.049   7.627  25.613  0.00  0.00    -0.035 A 
HETATM   20  C   UNL     1      -0.661   6.477  26.369  0.00  0.00     0.050 C 
ENDBRANCH  13  14
ENDBRANCH   3   7
BRANCH   4  21
HETATM   21  O   UNL     1      -4.582  10.157  27.201  0.00  0.00    -0.360 OA
HETATM   22  H   UNL     1      -5.528  10.407  27.105  0.00  0.00     0.217 HD
ENDBRANCH   4  21
BRANCH   1  23
HETATM   23  C   UNL     1      -1.943  13.129  23.231  0.00  0.00     0.256 C 
HETATM   24  N   UNL     1      -1.359  14.398  23.149  0.00  0.00    -0.348 N 
HETATM   25  C   UNL     1      -1.170  15.337  24.232  0.00  0.00     0.153 C 
HETATM   26  O   UNL     1      -1.951  12.397  22.240  0.00  0.00    -0.267 OA
BRANCH  24  27
HETATM   27  C   UNL     1      -0.714  14.746  21.882  0.00  0.00     0.164 C 
BRANCH  27  28
HETATM   28  C   UNL     1       0.753  15.105  22.005  0.00  0.00    -0.040 A 
HETATM   29  C   UNL     1       1.736  14.123  22.186  0.00  0.00     0.011 A 
HETATM   30  C   UNL     1       3.093  14.464  22.167  0.00  0.00     0.037 A 
HETATM   31  C   UNL     1       3.487  15.784  21.944  0.00  0.00     0.068 A 
HETATM   32  C   UNL     1       2.516  16.777  21.838  0.00  0.00     0.037 A 
HETATM   33  C   UNL     1       1.159  16.440  21.879  0.00  0.00     0.011 A 
BRANCH  31  34
HETATM   34  O   UNL     1       4.837  16.003  21.879  0.00  0.00    -0.356 OA
HETATM   35  C   UNL     1       5.605  14.876  21.465  0.00  0.00     0.210 C 
ENDBRANCH  31  34
ENDBRANCH  27  28
ENDBRANCH  24  27
ENDBRANCH   1  23
BRANCH   6  36
HETATM   36  O   UNL     1      -4.549  13.784  24.209  0.00  0.00    -0.360 OA
HETATM   37  H   UNL     1      -4.014  14.595  24.239  0.00  0.00     0.217 HD
ENDBRANCH   6  36
TORSDOF 8
ENDMDL
