MODEL 1
REMARK VINA RESULT:    -8.004      0.000      0.000
REMARK INTER + INTRA:         -12.321
REMARK INTER:                 -11.098
REMARK INTRA:                  -1.223
REMARK UNBOUND:                -1.509
REMARK  7 active torsions:
REMARK  status: ('A' for Active; 'I' for Inactive)
REMARK    1  A    between atoms: C_7  and  N_8 
REMARK    2  A    between atoms: C_14  and  C_15 
REMARK    3  A    between atoms: C_16  and  O_17 
REMARK    4  A    between atoms: C_19  and  O_20 
REMARK    5  A    between atoms: C_22  and  C_23 
REMARK       I    between atoms: C_23  and  N_25 
REMARK    6  A    between atoms: N_25  and  C_27 
REMARK    7  A    between atoms: C_27  and  C_28 
ROOT
HETATM    1  C   UNL     1      -1.589  11.824  25.822  0.00  0.00     0.046 C 
HETATM    2  C   UNL     1      -2.038  11.791  24.485  0.00  0.00     0.082 C 
HETATM    3  C   UNL     1      -1.351  12.447  23.465  0.00  0.00     0.075 C 
HETATM    4  C   UNL     1      -0.164  13.122  23.752  0.00  0.00     0.084 C 
HETATM    5  C   UNL     1      -0.446  12.595  26.101  0.00  0.00     0.038 C 
HETATM    6  C   UNL     1       0.329  13.183  25.070  0.00  0.00     0.066 C 
ENDROOT
BRANCH   1   7
HETATM    7  C   UNL     1      -2.380  11.049  26.838  0.00  0.00     0.172 A 
HETATM    8  N   UNL     1      -2.078   9.887  27.539  0.00  0.00    -0.241 N 
HETATM    9  C   UNL     1      -3.217   9.648  28.308  0.00  0.00     0.349 A 
HETATM   10  O   UNL     1      -3.510   8.723  29.053  0.00  0.00    -0.245 OA
HETATM   11  N   UNL     1      -4.085  10.687  28.044  0.00  0.00    -0.226 N 
HETATM   12  H   UNL     1      -5.020  10.771  28.423  0.00  0.00     0.194 HD
HETATM   13  N   UNL     1      -3.569  11.529  27.132  0.00  0.00    -0.151 NA
BRANCH   8  14
HETATM   14  C   UNL     1      -0.960   8.987  27.551  0.00  0.00     0.084 C 
HETATM   15  C   UNL     1      -0.247   8.605  26.422  0.00  0.00     0.143 C 
HETATM   16  F   UNL     1      -0.726   8.843  25.196  0.00  0.00    -0.204 F 
HETATM   17  C   UNL     1       0.949   7.885  26.497  0.00  0.00     0.044 C 
HETATM   18  C   UNL     1       1.396   7.396  27.718  0.00  0.00     0.003 C 
HETATM   19  C   UNL     1       0.632   7.627  28.851  0.00  0.00     0.002 C 
HETATM   20  C   UNL     1      -0.513   8.432  28.772  0.00  0.00     0.033 C 
ENDBRANCH   8  14
ENDBRANCH   1   7
BRANCH   2  21
HETATM   21  O   UNL     1      -3.165  11.125  24.068  0.00  0.00    -0.360 OA
HETATM   22  H   UNL     1      -2.889  10.435  23.426  0.00  0.00     0.217 HD
ENDBRANCH   2  21
BRANCH   6  23
HETATM   23  C   UNL     1       1.785  13.557  25.282  0.00  0.00     0.256 C 
HETATM   24  O   UNL     1       1.997  14.693  25.715  0.00  0.00    -0.267 OA
HETATM   25  N   UNL     1       2.863  12.735  24.895  0.00  0.00    -0.352 N 
HETATM   26  C   UNL     1       2.707  11.395  24.357  0.00  0.00     0.152 C 
BRANCH  25  27
HETATM   27  C   UNL     1       4.154  13.378  24.585  0.00  0.00     0.125 C 
BRANCH  27  28
HETATM   28  C   UNL     1       4.299  14.245  23.324  0.00  0.00     0.015 C 
HETATM   29  C   UNL     1       4.617  15.708  23.583  0.00  0.00     0.006 C 
ENDBRANCH  27  28
ENDBRANCH  25  27
ENDBRANCH   6  23
BRANCH   4  30
HETATM   30  O   UNL     1       0.478  13.731  22.717  0.00  0.00    -0.360 OA
HETATM   31  H   UNL     1       1.440  13.591  22.796  0.00  0.00     0.217 HD
ENDBRANCH   4  30
TORSDOF 7
ENDMDL
MODEL 2
REMARK VINA RESULT:    -7.741      6.430      9.973
REMARK INTER + INTRA:         -11.966
REMARK INTER:                 -10.180
REMARK INTRA:                  -1.786
REMARK UNBOUND:                -1.509
REMARK  7 active torsions:
REMARK  status: ('A' for Active; 'I' for Inactive)
REMARK    1  A    between atoms: C_7  and  N_8 
REMARK    2  A    between atoms: C_14  and  C_15 
REMARK    3  A    between atoms: C_16  and  O_17 
REMARK    4  A    between atoms: C_19  and  O_20 
REMARK    5  A    between atoms: C_22  and  C_23 
REMARK       I    between atoms: C_23  and  N_25 
REMARK    6  A    between atoms: N_25  and  C_27 
REMARK    7  A    between atoms: C_27  and  C_28 
ROOT
HETATM    1  C   UNL     1       8.129  12.542  22.392  0.00  0.00     0.046 C 
HETATM    2  C   UNL     1       8.519  12.761  21.053  0.00  0.00     0.082 C 
HETATM    3  C   UNL     1       7.999  12.004  20.006  0.00  0.00     0.075 C 
HETATM    4  C   UNL     1       7.035  11.030  20.266  0.00  0.00     0.084 C 
HETATM    5  C   UNL     1       7.232  11.487  22.638  0.00  0.00     0.038 C 
HETATM    6  C   UNL     1       6.608  10.774  21.584  0.00  0.00     0.066 C 
ENDROOT
BRANCH   1   7
HETATM    7  C   UNL     1       8.719  13.441  23.442  0.00  0.00     0.172 A 
HETATM    8  N   UNL     1       8.124  14.363  24.296  0.00  0.00    -0.241 N 
HETATM    9  C   UNL     1       9.192  14.900  25.014  0.00  0.00     0.349 A 
HETATM   10  O   UNL     1       9.237  15.796  25.845  0.00  0.00    -0.245 OA
HETATM   11  N   UNL     1      10.322  14.243  24.573  0.00  0.00    -0.226 N 
HETATM   12  H   UNL     1      11.266  14.444  24.879  0.00  0.00     0.194 HD
HETATM   13  N   UNL     1      10.022  13.365  23.601  0.00  0.00    -0.151 NA
BRANCH   8  14
HETATM   14  C   UNL     1       6.779  14.828  24.486  0.00  0.00     0.084 C 
HETATM   15  C   UNL     1       6.097  14.785  25.696  0.00  0.00     0.143 C 
HETATM   16  F   UNL     1       6.558  14.056  26.717  0.00  0.00    -0.204 F 
HETATM   17  C   UNL     1       4.867  15.422  25.886  0.00  0.00     0.044 C 
HETATM   18  C   UNL     1       4.207  16.004  24.812  0.00  0.00     0.003 C 
HETATM   19  C   UNL     1       4.785  15.936  23.555  0.00  0.00     0.002 C 
HETATM   20  C   UNL     1       6.062  15.379  23.400  0.00  0.00     0.033 C 
ENDBRANCH   8  14
ENDBRANCH   1   7
BRANCH   2  21
HETATM   21  O   UNL     1       9.425  13.718  20.663  0.00  0.00    -0.360 OA
HETATM   22  H   UNL     1       9.671  14.244  21.455  0.00  0.00     0.217 HD
ENDBRANCH   2  21
BRANCH   6  23
HETATM   23  C   UNL     1       5.305  10.024  21.790  0.00  0.00     0.256 C 
HETATM   24  O   UNL     1       4.272  10.644  21.524  0.00  0.00    -0.267 OA
HETATM   25  N   UNL     1       5.230   8.742  22.372  0.00  0.00    -0.352 N 
HETATM   26  C   UNL     1       6.390   7.948  22.736  0.00  0.00     0.152 C 
BRANCH  25  27
HETATM   27  C   UNL     1       3.982   8.362  23.060  0.00  0.00     0.125 C 
BRANCH  27  28
HETATM   28  C   UNL     1       3.900   8.415  24.595  0.00  0.00     0.015 C 
HETATM   29  C   UNL     1       4.147   9.785  25.204  0.00  0.00     0.006 C 
ENDBRANCH  27  28
ENDBRANCH  25  27
ENDBRANCH   6  23
BRANCH   4  30
HETATM   30  O   UNL     1       6.546  10.331  19.205  0.00  0.00    -0.360 OA
HETATM   31  H   UNL     1       6.614   9.374  19.378  0.00  0.00     0.217 HD
ENDBRANCH   4  30
TORSDOF 7
ENDMDL
MODEL 3
REMARK VINA RESULT:    -7.495      4.289      8.636
REMARK INTER + INTRA:         -11.633
REMARK INTER:                  -9.983
REMARK INTRA:                  -1.650
REMARK UNBOUND:                -1.509
REMARK  7 active torsions:
REMARK  status: ('A' for Active; 'I' for Inactive)
REMARK    1  A    between atoms: C_7  and  N_8 
REMARK    2  A    between atoms: C_14  and  C_15 
REMARK    3  A    between atoms: C_16  and  O_17 
REMARK    4  A    between atoms: C_19  and  O_20 
REMARK    5  A    between atoms: C_22  and  C_23 
REMARK       I    between atoms: C_23  and  N_25 
REMARK    6  A    between atoms: N_25  and  C_27 
REMARK    7  A    between atoms: C_27  and  C_28 
ROOT
HETATM    1  C   UNL     1       6.022  11.321  24.741  0.00  0.00     0.046 C 
HETATM    2  C   UNL     1       6.405  10.657  23.556  0.00  0.00     0.082 C 
HETATM    3  C   UNL     1       5.566   9.740  22.926  0.00  0.00     0.075 C 
HETATM    4  C   UNL     1       4.295   9.493  23.444  0.00  0.00     0.084 C 
HETATM    5  C   UNL     1       4.776  10.978  25.298  0.00  0.00     0.038 C 
HETATM    6  C   UNL     1       3.862  10.132  24.623  0.00  0.00     0.066 C 
ENDROOT
BRANCH   1   7
HETATM    7  C   UNL     1       6.984  12.321  25.318  0.00  0.00     0.172 A 
HETATM    8  N   UNL     1       6.899  13.703  25.442  0.00  0.00    -0.241 N 
HETATM    9  C   UNL     1       8.111  14.066  26.030  0.00  0.00     0.349 A 
HETATM   10  O   UNL     1       8.583  15.161  26.297  0.00  0.00    -0.245 OA
HETATM   11  N   UNL     1       8.801  12.891  26.246  0.00  0.00    -0.226 N 
HETATM   12  H   UNL     1       9.738  12.830  26.624  0.00  0.00     0.194 HD
HETATM   13  N   UNL     1       8.109  11.832  25.792  0.00  0.00    -0.151 NA
BRANCH   8  14
HETATM   14  C   UNL     1       5.925  14.685  25.060  0.00  0.00     0.084 C 
HETATM   15  C   UNL     1       5.866  15.288  23.810  0.00  0.00     0.143 C 
HETATM   16  F   UNL     1       6.887  15.190  22.953  0.00  0.00    -0.204 F 
HETATM   17  C   UNL     1       4.791  16.090  23.414  0.00  0.00     0.044 C 
HETATM   18  C   UNL     1       3.801  16.434  24.326  0.00  0.00     0.003 C 
HETATM   19  C   UNL     1       3.903  15.974  25.629  0.00  0.00     0.002 C 
HETATM   20  C   UNL     1       4.935  15.093  25.983  0.00  0.00     0.033 C 
ENDBRANCH   8  14
ENDBRANCH   1   7
BRANCH   2  21
HETATM   21  O   UNL     1       7.610  10.846  22.924  0.00  0.00    -0.360 OA
HETATM   22  H   UNL     1       7.548  11.670  22.392  0.00  0.00     0.217 HD
ENDBRANCH   2  21
BRANCH   6  23
HETATM   23  C   UNL     1       2.375  10.160  24.926  0.00  0.00     0.256 C 
HETATM   24  O   UNL     1       1.906   9.145  25.449  0.00  0.00    -0.267 OA
HETATM   25  N   UNL     1       1.521  11.210  24.531  0.00  0.00    -0.352 N 
HETATM   26  C   UNL     1       1.981  12.431  23.893  0.00  0.00     0.152 C 
BRANCH  25  27
HETATM   27  C   UNL     1       0.092  10.907  24.326  0.00  0.00     0.125 C 
BRANCH  27  28
HETATM   28  C   UNL     1      -0.886  12.029  23.942  0.00  0.00     0.015 C 
HETATM   29  C   UNL     1      -2.269  11.560  23.523  0.00  0.00     0.006 C 
ENDBRANCH  27  28
ENDBRANCH  25  27
ENDBRANCH   6  23
BRANCH   4  30
HETATM   30  O   UNL     1       3.508   8.603  22.780  0.00  0.00    -0.360 OA
HETATM   31  H   UNL     1       3.614   8.718  21.818  0.00  0.00     0.217 HD
ENDBRANCH   4  30
TORSDOF 7
ENDMDL
MODEL 4
REMARK VINA RESULT:    -7.396      4.506      8.936
REMARK INTER + INTRA:         -11.500
REMARK INTER:                  -9.870
REMARK INTRA:                  -1.630
REMARK UNBOUND:                -1.509
REMARK  7 active torsions:
REMARK  status: ('A' for Active; 'I' for Inactive)
REMARK    1  A    between atoms: C_7  and  N_8 
REMARK    2  A    between atoms: C_14  and  C_15 
REMARK    3  A    between atoms: C_16  and  O_17 
REMARK    4  A    between atoms: C_19  and  O_20 
REMARK    5  A    between atoms: C_22  and  C_23 
REMARK       I    between atoms: C_23  and  N_25 
REMARK    6  A    between atoms: N_25  and  C_27 
REMARK    7  A    between atoms: C_27  and  C_28 
ROOT
HETATM    1  C   UNL     1       6.515  11.584  23.705  0.00  0.00     0.046 C 
HETATM    2  C   UNL     1       6.590  11.396  22.308  0.00  0.00     0.082 C 
HETATM    3  C   UNL     1       5.738  10.520  21.640  0.00  0.00     0.075 C 
HETATM    4  C   UNL     1       4.752   9.835  22.350  0.00  0.00     0.084 C 
HETATM    5  C   UNL     1       5.580  10.806  24.411  0.00  0.00     0.038 C 
HETATM    6  C   UNL     1       4.632   9.989  23.745  0.00  0.00     0.066 C 
ENDROOT
BRANCH   1   7
HETATM    7  C   UNL     1       7.453  12.583  24.322  0.00  0.00     0.172 A 
HETATM    8  N   UNL     1       7.238  13.880  24.774  0.00  0.00    -0.241 N 
HETATM    9  C   UNL     1       8.495  14.300  25.211  0.00  0.00     0.349 A 
HETATM   10  O   UNL     1       8.882  15.378  25.638  0.00  0.00    -0.245 OA
HETATM   11  N   UNL     1       9.344  13.229  25.028  0.00  0.00    -0.226 N 
HETATM   12  H   UNL     1      10.339  13.240  25.213  0.00  0.00     0.194 HD
HETATM   13  N   UNL     1       8.700  12.190  24.468  0.00  0.00    -0.151 NA
BRANCH   8  14
HETATM   14  C   UNL     1       6.100  14.754  24.804  0.00  0.00     0.084 C 
HETATM   15  C   UNL     1       5.621  15.458  23.706  0.00  0.00     0.143 C 
HETATM   16  F   UNL     1       6.356  15.577  22.595  0.00  0.00    -0.204 F 
HETATM   17  C   UNL     1       4.403  16.143  23.727  0.00  0.00     0.044 C 
HETATM   18  C   UNL     1       3.689  16.264  24.912  0.00  0.00     0.003 C 
HETATM   19  C   UNL     1       4.209  15.703  26.067  0.00  0.00     0.002 C 
HETATM   20  C   UNL     1       5.383  14.939  26.008  0.00  0.00     0.033 C 
ENDBRANCH   8  14
ENDBRANCH   1   7
BRANCH   2  21
HETATM   21  O   UNL     1       7.486  12.044  21.492  0.00  0.00    -0.360 OA
HETATM   22  H   UNL     1       7.898  11.375  20.902  0.00  0.00     0.217 HD
ENDBRANCH   2  21
BRANCH   6  23
HETATM   23  C   UNL     1       3.334   9.568  24.411  0.00  0.00     0.256 C 
HETATM   24  O   UNL     1       3.212   8.364  24.653  0.00  0.00    -0.267 OA
HETATM   25  N   UNL     1       2.256  10.447  24.637  0.00  0.00    -0.352 N 
HETATM   26  C   UNL     1       2.303  11.873  24.364  0.00  0.00     0.152 C 
BRANCH  25  27
HETATM   27  C   UNL     1       0.897   9.878  24.715  0.00  0.00     0.125 C 
BRANCH  27  28
HETATM   28  C   UNL     1      -0.312  10.799  24.944  0.00  0.00     0.015 C 
HETATM   29  C   UNL     1      -1.248  10.939  23.755  0.00  0.00     0.006 C 
ENDBRANCH  27  28
ENDBRANCH  25  27
ENDBRANCH   6  23
BRANCH   4  30
HETATM   30  O   UNL     1       3.933   9.005  21.648  0.00  0.00    -0.360 OA
HETATM   31  H   UNL     1       3.638   9.445  20.829  0.00  0.00     0.217 HD
ENDBRANCH   4  30
TORSDOF 7
ENDMDL
MODEL 5
REMARK VINA RESULT:    -7.300      4.505      8.925
REMARK INTER + INTRA:         -11.370
REMARK INTER:                  -9.972
REMARK INTRA:                  -1.399
REMARK UNBOUND:                -1.509
REMARK  7 active torsions:
REMARK  status: ('A' for Active; 'I' for Inactive)
REMARK    1  A    between atoms: C_7  and  N_8 
REMARK    2  A    between atoms: C_14  and  C_15 
REMARK    3  A    between atoms: C_16  and  O_17 
REMARK    4  A    between atoms: C_19  and  O_20 
REMARK    5  A    between atoms: C_22  and  C_23 
REMARK       I    between atoms: C_23  and  N_25 
REMARK    6  A    between atoms: N_25  and  C_27 
REMARK    7  A    between atoms: C_27  and  C_28 
ROOT
HETATM    1  C   UNL     1       5.818  14.783  23.653  0.00  0.00     0.046 C 
HETATM    2  C   UNL     1       6.080  15.098  25.003  0.00  0.00     0.082 C 
HETATM    3  C   UNL     1       5.052  15.277  25.926  0.00  0.00     0.075 C 
HETATM    4  C   UNL     1       3.726  15.103  25.530  0.00  0.00     0.084 C 
HETATM    5  C   UNL     1       4.470  14.712  23.257  0.00  0.00     0.038 C 
HETATM    6  C   UNL     1       3.410  14.784  24.195  0.00  0.00     0.066 C 
ENDROOT
BRANCH   1   7
HETATM    7  C   UNL     1       6.999  14.570  22.748  0.00  0.00     0.172 A 
HETATM    8  N   UNL     1       7.833  13.470  22.579  0.00  0.00    -0.241 N 
HETATM    9  C   UNL     1       8.757  13.890  21.621  0.00  0.00     0.349 A 
HETATM   10  O   UNL     1       9.747  13.340  21.159  0.00  0.00    -0.245 OA
HETATM   11  N   UNL     1       8.390  15.171  21.267  0.00  0.00    -0.226 N 
HETATM   12  H   UNL     1       8.897  15.761  20.619  0.00  0.00     0.194 HD
HETATM   13  N   UNL     1       7.323  15.582  21.974  0.00  0.00    -0.151 NA
BRANCH   8  14
HETATM   14  C   UNL     1       7.919  12.175  23.190  0.00  0.00     0.084 C 
HETATM   15  C   UNL     1       7.544  10.988  22.573  0.00  0.00     0.143 C 
HETATM   16  F   UNL     1       6.819  10.999  21.449  0.00  0.00    -0.204 F 
HETATM   17  C   UNL     1       7.823   9.734  23.125  0.00  0.00     0.044 C 
HETATM   18  C   UNL     1       8.363   9.636  24.400  0.00  0.00     0.003 C 
HETATM   19  C   UNL     1       8.613  10.798  25.113  0.00  0.00     0.002 C 
HETATM   20  C   UNL     1       8.418  12.047  24.507  0.00  0.00     0.033 C 
ENDBRANCH   8  14
ENDBRANCH   1   7
BRANCH   2  21
HETATM   21  O   UNL     1       7.341  15.253  25.525  0.00  0.00    -0.360 OA
HETATM   22  H   UNL     1       7.807  14.391  25.454  0.00  0.00     0.217 HD
ENDBRANCH   2  21
BRANCH   6  23
HETATM   23  C   UNL     1       2.036  14.213  23.893  0.00  0.00     0.256 C 
HETATM   24  O   UNL     1       1.158  15.030  23.605  0.00  0.00    -0.267 OA
HETATM   25  N   UNL     1       1.711  12.851  24.049  0.00  0.00    -0.352 N 
HETATM   26  C   UNL     1       2.673  11.823  24.406  0.00  0.00     0.152 C 
BRANCH  25  27
HETATM   27  C   UNL     1       0.303  12.497  24.315  0.00  0.00     0.125 C 
BRANCH  27  28
HETATM   28  C   UNL     1      -0.652  12.202  23.147  0.00  0.00     0.015 C 
HETATM   29  C   UNL     1      -1.869  11.368  23.507  0.00  0.00     0.006 C 
ENDBRANCH  27  28
ENDBRANCH  25  27
ENDBRANCH   6  23
BRANCH   4  30
HETATM   30  O   UNL     1       2.761  15.271  26.475  0.00  0.00    -0.360 OA
HETATM   31  H   UNL     1       2.608  14.432  26.947  0.00  0.00     0.217 HD
ENDBRANCH   4  30
TORSDOF 7
ENDMDL
MODEL 6
REMARK VINA RESULT:    -7.220      1.251      1.695
REMARK INTER + INTRA:         -11.262
REMARK INTER:                  -9.722
REMARK INTRA:                  -1.541
REMARK UNBOUND:                -1.509
REMARK  7 active torsions:
REMARK  status: ('A' for Active; 'I' for Inactive)
REMARK    1  A    between atoms: C_7  and  N_8 
REMARK    2  A    between atoms: C_14  and  C_15 
REMARK    3  A    between atoms: C_16  and  O_17 
REMARK    4  A    between atoms: C_19  and  O_20 
REMARK    5  A    between atoms: C_22  and  C_23 
REMARK       I    between atoms: C_23  and  N_25 
REMARK    6  A    between atoms: N_25  and  C_27 
REMARK    7  A    between atoms: C_27  and  C_28 
ROOT
HETATM    1  C   UNL     1      -1.157  11.607  25.293  0.00  0.00     0.046 C 
HETATM    2  C   UNL     1      -1.934  11.621  24.115  0.00  0.00     0.082 C 
HETATM    3  C   UNL     1      -1.445  12.147  22.921  0.00  0.00     0.075 C 
HETATM    4  C   UNL     1      -0.139  12.636  22.862  0.00  0.00     0.084 C 
HETATM    5  C   UNL     1       0.119  12.197  25.232  0.00  0.00     0.038 C 
HETATM    6  C   UNL     1       0.680  12.641  24.008  0.00  0.00     0.066 C 
ENDROOT
BRANCH   1   7
HETATM    7  C   UNL     1      -1.764  10.980  26.516  0.00  0.00     0.172 A 
HETATM    8  N   UNL     1      -1.440   9.814  27.202  0.00  0.00    -0.241 N 
HETATM    9  C   UNL     1      -2.379   9.755  28.233  0.00  0.00     0.349 A 
HETATM   10  O   UNL     1      -2.589   8.904  29.085  0.00  0.00    -0.245 OA
HETATM   11  N   UNL     1      -3.154  10.889  28.113  0.00  0.00    -0.226 N 
HETATM   12  H   UNL     1      -3.953  11.110  28.695  0.00  0.00     0.194 HD
HETATM   13  N   UNL     1      -2.779  11.623  27.050  0.00  0.00    -0.151 NA
BRANCH   8  14
HETATM   14  C   UNL     1      -0.468   8.776  27.009  0.00  0.00     0.084 C 
HETATM   15  C   UNL     1      -0.125   8.242  25.774  0.00  0.00     0.143 C 
HETATM   16  F   UNL     1      -0.877   8.474  24.693  0.00  0.00    -0.204 F 
HETATM   17  C   UNL     1       0.959   7.375  25.607  0.00  0.00     0.044 C 
HETATM   18  C   UNL     1       1.651   6.898  26.712  0.00  0.00     0.003 C 
HETATM   19  C   UNL     1       1.243   7.290  27.977  0.00  0.00     0.002 C 
HETATM   20  C   UNL     1       0.216   8.234  28.121  0.00  0.00     0.033 C 
ENDBRANCH   8  14
ENDBRANCH   1   7
BRANCH   2  21
HETATM   21  O   UNL     1      -3.214  11.130  24.033  0.00  0.00    -0.360 OA
HETATM   22  H   UNL     1      -3.236  10.261  24.490  0.00  0.00     0.217 HD
ENDBRANCH   2  21
BRANCH   6  23
HETATM   23  C   UNL     1       2.179  12.791  23.826  0.00  0.00     0.256 C 
HETATM   24  O   UNL     1       2.745  11.886  23.207  0.00  0.00    -0.267 OA
HETATM   25  N   UNL     1       2.936  13.818  24.425  0.00  0.00    -0.352 N 
HETATM   26  C   UNL     1       2.358  14.911  25.187  0.00  0.00     0.152 C 
BRANCH  25  27
HETATM   27  C   UNL     1       4.364  13.565  24.695  0.00  0.00     0.125 C 
BRANCH  27  28
HETATM   28  C   UNL     1       4.782  12.757  25.934  0.00  0.00     0.015 C 
HETATM   29  C   UNL     1       5.792  11.653  25.671  0.00  0.00     0.006 C 
ENDBRANCH  27  28
ENDBRANCH  25  27
ENDBRANCH   6  23
BRANCH   4  30
HETATM   30  O   UNL     1       0.296  13.121  21.667  0.00  0.00    -0.360 OA
HETATM   31  H   UNL     1      -0.426  13.598  21.219  0.00  0.00     0.217 HD
ENDBRANCH   4  30
TORSDOF 7
ENDMDL
MODEL 7
REMARK VINA RESULT:    -7.199      5.789      9.376
REMARK INTER + INTRA:         -11.233
REMARK INTER:                  -9.724
REMARK INTRA:                  -1.509
REMARK UNBOUND:                -1.509
REMARK  7 active torsions:
REMARK  status: ('A' for Active; 'I' for Inactive)
REMARK    1  A    between atoms: C_7  and  N_8 
REMARK    2  A    between atoms: C_14  and  C_15 
REMARK    3  A    between atoms: C_16  and  O_17 
REMARK    4  A    between atoms: C_19  and  O_20 
REMARK    5  A    between atoms: C_22  and  C_23 
REMARK       I    between atoms: C_23  and  N_25 
REMARK    6  A    between atoms: N_25  and  C_27 
REMARK    7  A    between atoms: C_27  and  C_28 
ROOT
HETATM    1  C   UNL     1       6.823  11.787  23.428  0.00  0.00     0.046 C 
HETATM    2  C   UNL     1       6.615  11.833  22.033  0.00  0.00     0.082 C 
HETATM    3  C   UNL     1       5.768  10.934  21.388  0.00  0.00     0.075 C 
HETATM    4  C   UNL     1       5.068   9.984  22.133  0.00  0.00     0.084 C 
HETATM    5  C   UNL     1       6.184  10.757  24.141  0.00  0.00     0.038 C 
HETATM    6  C   UNL     1       5.237   9.897  23.529  0.00  0.00     0.066 C 
ENDROOT
BRANCH   1   7
HETATM    7  C   UNL     1       7.724  12.828  24.030  0.00  0.00     0.172 A 
HETATM    8  N   UNL     1       7.443  14.082  24.561  0.00  0.00    -0.241 N 
HETATM    9  C   UNL     1       8.693  14.581  24.932  0.00  0.00     0.349 A 
HETATM   10  O   UNL     1       9.027  15.665  25.386  0.00  0.00    -0.245 OA
HETATM   11  N   UNL     1       9.606  13.590  24.638  0.00  0.00    -0.226 N 
HETATM   12  H   UNL     1      10.608  13.671  24.757  0.00  0.00     0.194 HD
HETATM   13  N   UNL     1       9.004  12.529  24.072  0.00  0.00    -0.151 NA
BRANCH   8  14
HETATM   14  C   UNL     1       6.248  14.861  24.711  0.00  0.00     0.084 C 
HETATM   15  C   UNL     1       5.647  15.584  23.688  0.00  0.00     0.143 C 
HETATM   16  F   UNL     1       6.298  15.823  22.544  0.00  0.00    -0.204 F 
HETATM   17  C   UNL     1       4.385  16.169  23.823  0.00  0.00     0.044 C 
HETATM   18  C   UNL     1       3.742  16.169  25.054  0.00  0.00     0.003 C 
HETATM   19  C   UNL     1       4.376  15.588  26.140  0.00  0.00     0.002 C 
HETATM   20  C   UNL     1       5.597  14.922  25.964  0.00  0.00     0.033 C 
ENDBRANCH   8  14
ENDBRANCH   1   7
BRANCH   2  21
HETATM   21  O   UNL     1       7.210  12.747  21.197  0.00  0.00    -0.360 OA
HETATM   22  H   UNL     1       8.044  13.047  21.619  0.00  0.00     0.217 HD
ENDBRANCH   2  21
BRANCH   6  23
HETATM   23  C   UNL     1       4.190   9.156  24.340  0.00  0.00     0.256 C 
HETATM   24  O   UNL     1       3.107   9.729  24.483  0.00  0.00    -0.267 OA
HETATM   25  N   UNL     1       4.445   7.946  25.016  0.00  0.00    -0.352 N 
HETATM   26  C   UNL     1       5.695   7.213  24.922  0.00  0.00     0.152 C 
BRANCH  25  27
HETATM   27  C   UNL     1       3.629   7.626  26.203  0.00  0.00     0.125 C 
BRANCH  27  28
HETATM   28  C   UNL     1       4.119   6.576  27.214  0.00  0.00     0.015 C 
HETATM   29  C   UNL     1       3.703   6.827  28.653  0.00  0.00     0.006 C 
ENDBRANCH  27  28
ENDBRANCH  25  27
ENDBRANCH   6  23
BRANCH   4  30
HETATM   30  O   UNL     1       4.240   9.142  21.457  0.00  0.00    -0.360 OA
HETATM   31  H   UNL     1       3.374   9.567  21.319  0.00  0.00     0.217 HD
ENDBRANCH   4  30
TORSDOF 7
ENDMDL
MODEL 8
REMARK VINA RESULT:    -7.193      5.861     10.184
REMARK INTER + INTRA:         -11.226
REMARK INTER:                  -9.432
REMARK INTRA:                  -1.794
REMARK UNBOUND:                -1.509
REMARK  7 active torsions:
REMARK  status: ('A' for Active; 'I' for Inactive)
REMARK    1  A    between atoms: C_7  and  N_8 
REMARK    2  A    between atoms: C_14  and  C_15 
REMARK    3  A    between atoms: C_16  and  O_17 
REMARK    4  A    between atoms: C_19  and  O_20 
REMARK    5  A    between atoms: C_22  and  C_23 
REMARK       I    between atoms: C_23  and  N_25 
REMARK    6  A    between atoms: N_25  and  C_27 
REMARK    7  A    between atoms: C_27  and  C_28 
ROOT
HETATM    1  C   UNL     1       6.909  12.586  21.602  0.00  0.00     0.046 C 
HETATM    2  C   UNL     1       6.743  11.321  20.998  0.00  0.00     0.082 C 
HETATM    3  C   UNL     1       5.723  10.454  21.382  0.00  0.00     0.075 C 
HETATM    4  C   UNL     1       4.808  10.848  22.359  0.00  0.00     0.084 C 
HETATM    5  C   UNL     1       6.036  12.918  22.654  0.00  0.00     0.038 C 
HETATM    6  C   UNL     1       4.927  12.101  22.992  0.00  0.00     0.066 C 
ENDROOT
BRANCH   1   7
HETATM    7  C   UNL     1       8.015  13.462  21.086  0.00  0.00     0.172 A 
HETATM    8  N   UNL     1       9.059  14.100  21.746  0.00  0.00    -0.241 N 
HETATM    9  C   UNL     1       9.734  14.784  20.734  0.00  0.00     0.349 A 
HETATM   10  O   UNL     1      10.683  15.553  20.773  0.00  0.00    -0.245 OA
HETATM   11  N   UNL     1       9.079  14.477  19.560  0.00  0.00    -0.226 N 
HETATM   12  H   UNL     1       9.310  14.858  18.651  0.00  0.00     0.194 HD
HETATM   13  N   UNL     1       8.020  13.681  19.789  0.00  0.00    -0.151 NA
BRANCH   8  14
HETATM   14  C   UNL     1       9.461  14.202  23.120  0.00  0.00     0.084 C 
HETATM   15  C   UNL     1      10.138  13.208  23.816  0.00  0.00     0.143 C 
HETATM   16  F   UNL     1      10.228  11.967  23.326  0.00  0.00    -0.204 F 
HETATM   17  C   UNL     1      10.680  13.419  25.087  0.00  0.00     0.044 C 
HETATM   18  C   UNL     1      10.431  14.604  25.767  0.00  0.00     0.003 C 
HETATM   19  C   UNL     1       9.632  15.564  25.166  0.00  0.00     0.002 C 
HETATM   20  C   UNL     1       9.176  15.376  23.854  0.00  0.00     0.033 C 
ENDBRANCH   8  14
ENDBRANCH   1   7
BRANCH   2  21
HETATM   21  O   UNL     1       7.549  10.836  19.996  0.00  0.00    -0.360 OA
HETATM   22  H   UNL     1       8.478  11.063  20.218  0.00  0.00     0.217 HD
ENDBRANCH   2  21
BRANCH   6  23
HETATM   23  C   UNL     1       3.722  12.658  23.728  0.00  0.00     0.256 C 
HETATM   24  O   UNL     1       2.722  12.885  23.042  0.00  0.00    -0.267 OA
HETATM   25  N   UNL     1       3.746  13.029  25.088  0.00  0.00    -0.352 N 
HETATM   26  C   UNL     1       4.884  12.819  25.965  0.00  0.00     0.152 C 
BRANCH  25  27
HETATM   27  C   UNL     1       2.798  14.063  25.545  0.00  0.00     0.125 C 
BRANCH  27  28
HETATM   28  C   UNL     1       3.233  15.536  25.605  0.00  0.00     0.015 C 
HETATM   29  C   UNL     1       4.107  15.996  24.450  0.00  0.00     0.006 C 
ENDBRANCH  27  28
ENDBRANCH  25  27
ENDBRANCH   6  23
BRANCH   4  30
HETATM   30  O   UNL     1       3.820   9.971  22.685  0.00  0.00    -0.360 OA
HETATM   31  H   UNL     1       4.004   9.100  22.289  0.00  0.00     0.217 HD
ENDBRANCH   4  30
TORSDOF 7
ENDMDL
MODEL 9
REMARK VINA RESULT:    -7.080      3.638      6.442
REMARK INTER + INTRA:         -11.073
REMARK INTER:                  -9.221
REMARK INTRA:                  -1.852
REMARK UNBOUND:                -1.509
REMARK  7 active torsions:
REMARK  status: ('A' for Active; 'I' for Inactive)
REMARK    1  A    between atoms: C_7  and  N_8 
REMARK    2  A    between atoms: C_14  and  C_15 
REMARK    3  A    between atoms: C_16  and  O_17 
REMARK    4  A    between atoms: C_19  and  O_20 
REMARK    5  A    between atoms: C_22  and  C_23 
REMARK       I    between atoms: C_23  and  N_25 
REMARK    6  A    between atoms: N_25  and  C_27 
REMARK    7  A    between atoms: C_27  and  C_28 
ROOT
HETATM    1  C   UNL     1       3.093  10.693  24.423  0.00  0.00     0.046 C 
HETATM    2  C   UNL     1       3.191   9.486  25.150  0.00  0.00     0.082 C 
HETATM    3  C   UNL     1       4.362   8.732  25.162  0.00  0.00     0.075 C 
HETATM    4  C   UNL     1       5.489   9.188  24.478  0.00  0.00     0.084 C 
HETATM    5  C   UNL     1       4.210  11.078  23.660  0.00  0.00     0.038 C 
HETATM    6  C   UNL     1       5.445  10.387  23.740  0.00  0.00     0.066 C 
ENDROOT
BRANCH   1   7
HETATM    7  C   UNL     1       1.799  11.451  24.510  0.00  0.00     0.172 A 
HETATM    8  N   UNL     1       1.544  12.810  24.655  0.00  0.00    -0.241 N 
HETATM    9  C   UNL     1       0.152  12.892  24.699  0.00  0.00     0.349 A 
HETATM   10  O   UNL     1      -0.595  13.842  24.882  0.00  0.00    -0.245 OA
HETATM   11  N   UNL     1      -0.315  11.605  24.540  0.00  0.00    -0.226 N 
HETATM   12  H   UNL     1      -1.289  11.333  24.571  0.00  0.00     0.194 HD
HETATM   13  N   UNL     1       0.702  10.730  24.441  0.00  0.00    -0.151 NA
BRANCH   8  14
HETATM   14  C   UNL     1       2.372  13.973  24.805  0.00  0.00     0.084 C 
HETATM   15  C   UNL     1       2.581  14.638  26.007  0.00  0.00     0.143 C 
HETATM   16  F   UNL     1       1.804  14.396  27.069  0.00  0.00    -0.204 F 
HETATM   17  C   UNL     1       3.541  15.644  26.151  0.00  0.00     0.044 C 
HETATM   18  C   UNL     1       4.229  16.119  25.042  0.00  0.00     0.003 C 
HETATM   19  C   UNL     1       3.940  15.584  23.796  0.00  0.00     0.002 C 
HETATM   20  C   UNL     1       3.045  14.511  23.685  0.00  0.00     0.033 C 
ENDBRANCH   8  14
ENDBRANCH   1   7
BRANCH   2  21
HETATM   21  O   UNL     1       2.169   8.955  25.898  0.00  0.00    -0.360 OA
HETATM   22  H   UNL     1       1.341   9.027  25.375  0.00  0.00     0.217 HD
ENDBRANCH   2  21
BRANCH   6  23
HETATM   23  C   UNL     1       6.756  11.050  23.358  0.00  0.00     0.256 C 
HETATM   24  O   UNL     1       7.429  11.501  24.289  0.00  0.00    -0.267 OA
HETATM   25  N   UNL     1       7.154  11.275  22.025  0.00  0.00    -0.352 N 
HETATM   26  C   UNL     1       6.415  10.800  20.868  0.00  0.00     0.152 C 
BRANCH  25  27
HETATM   27  C   UNL     1       8.075  12.394  21.751  0.00  0.00     0.125 C 
BRANCH  27  28
HETATM   28  C   UNL     1       7.518  13.787  21.416  0.00  0.00     0.015 C 
HETATM   29  C   UNL     1       7.296  14.695  22.614  0.00  0.00     0.006 C 
ENDBRANCH  27  28
ENDBRANCH  25  27
ENDBRANCH   6  23
BRANCH   4  30
HETATM   30  O   UNL     1       6.613   8.423  24.537  0.00  0.00    -0.360 OA
HETATM   31  H   UNL     1       7.008   8.481  25.426  0.00  0.00     0.217 HD
ENDBRANCH   4  30
TORSDOF 7
ENDMDL
