REMARK  5 active torsions:
REMARK  status: ('A' for Active; 'I' for Inactive)
REMARK       I    between atoms: N_8  and  C_10 
REMARK    1  A    between atoms: C_10  and  C_12 
REMARK    2  A    between atoms: C_14  and  N_15 
REMARK    3  A    between atoms: C_21  and  C_23 
REMARK    4  A    between atoms: C_28  and  S_29 
REMARK    5  A    between atoms: S_29  and  N_32 
ROOT
HETATM    1  C   UNL     1       4.506  -1.522  -1.116  0.00  0.00     0.156 A 
HETATM    2  N   UNL     1       3.851  -2.636  -0.686  0.00  0.00    -0.057 NA
HETATM    3  C   UNL     1       4.175  -3.777  -1.273  0.00  0.00     0.721 A 
HETATM    4  N   UNL     1       5.091  -3.873  -2.237  0.00  0.00    -0.063 NA
HETATM    5  C   UNL     1       5.741  -2.760  -2.653  0.00  0.00     0.088 A 
HETATM    6  C   UNL     1       5.532  -1.500  -2.110  0.00  0.00     0.029 A 
HETATM    7  C   UNL     1       6.658  -2.851  -3.703  0.00  0.00     0.034 A 
HETATM    8  C   UNL     1       7.387  -1.747  -4.231  0.00  0.00     0.014 A 
HETATM    9  C   UNL     1       7.260  -0.455  -3.713  0.00  0.00    -0.023 A 
HETATM   10  C   UNL     1       6.341  -0.378  -2.624  0.00  0.00     0.028 A 
ENDROOT
BRANCH   9  11
HETATM   11  C   UNL     1       8.102   0.728  -4.200  0.00  0.00    -0.003 A 
HETATM   12  C   UNL     1       8.621   1.633  -3.236  0.00  0.00     0.014 A 
HETATM   13  C   UNL     1       9.453   2.740  -3.551  0.00  0.00     0.001 A 
HETATM   14  C   UNL     1       9.892   2.969  -4.837  0.00  0.00     0.002 A 
HETATM   15  C   UNL     1       9.394   2.128  -5.831  0.00  0.00     0.026 A 
HETATM   16  C   UNL     1       8.479   1.069  -5.531  0.00  0.00     0.090 A 
BRANCH  16  17
HETATM   17  S   UNL     1       7.654   0.529  -7.020  0.00  0.00     0.261 S 
HETATM   18  O   UNL     1       8.653   0.141  -7.985  0.00  0.00    -0.200 OA
HETATM   19  O   UNL     1       6.510  -0.296  -6.731  0.00  0.00    -0.200 OA
BRANCH  17  20
HETATM   20  N   UNL     1       6.971   2.010  -7.531  0.00  0.00    -0.303 N 
HETATM   21  C   UNL     1       5.938   2.609  -6.653  0.00  0.00     0.163 C 
HETATM   22  C   UNL     1       4.489   2.388  -7.115  0.00  0.00     0.255 C 
HETATM   23  N   UNL     1       4.266   2.396  -8.621  0.00  0.00    -0.072 N 
HETATM   24  H   UNL     1       4.096   3.378  -8.875  0.00  0.00     0.279 HD
HETATM   25  C   UNL     1       3.016   1.628  -9.000  0.00  0.00     0.269 C 
HETATM   26  C   UNL     1       5.416   1.900  -9.483  0.00  0.00     0.255 C 
HETATM   27  C   UNL     1       6.802   2.280  -8.968  0.00  0.00     0.163 C 
ENDBRANCH  17  20
ENDBRANCH  16  17
ENDBRANCH   9  11
BRANCH   1  28
HETATM   28  C   UNL     1       3.894  -0.230  -0.626  0.00  0.00     0.274 C 
HETATM   29  N   UNL     1       3.210  -0.156   0.586  0.00  0.00    -0.342 N 
HETATM   30  C   UNL     1       3.116  -1.159   1.644  0.00  0.00     0.161 C 
HETATM   31  C   UNL     1       2.545   1.080   0.999  0.00  0.00     0.139 C 
HETATM   32  C   UNL     1       2.941  -0.310   2.874  0.00  0.00    -0.056 C 
HETATM   33  C   UNL     1       2.887  -0.685   4.165  0.00  0.00    -0.018 C 
HETATM   34  C   UNL     1       2.801   1.150   2.498  0.00  0.00     0.056 C 
HETATM   35  C   UNL     1       2.575   0.331   5.245  0.00  0.00     0.054 C 
HETATM   36  C   UNL     1       1.788   1.510   4.708  0.00  0.00    -0.026 C 
HETATM   37  C   UNL     1       1.841   1.866   3.408  0.00  0.00    -0.020 C 
HETATM   38  O   UNL     1       3.973   0.758  -1.363  0.00  0.00    -0.266 OA
ENDBRANCH   1  28
BRANCH   3  39
HETATM   39  N   UNL     1       3.501  -4.909  -0.872  0.00  0.00    -0.231 N 
HETATM   40  H   UNL     1       3.075  -4.832   0.040  0.00  0.00     0.174 HD
HETATM   41  H   UNL     1       3.973  -5.769  -1.107  0.00  0.00     0.174 HD
ENDBRANCH   3  39
TORSDOF 5
