MODEL 1
REMARK VINA RESULT:    -7.036      0.000      0.000
REMARK INTER + INTRA:         -11.359
REMARK INTER:                 -10.491
REMARK INTRA:                  -0.868
REMARK UNBOUND:                -1.032
REMARK  9 active torsions:
REMARK  status: ('A' for Active; 'I' for Inactive)
REMARK    1  A    between atoms: O_1  and  C_2 
REMARK    2  A    between atoms: C_2  and  C_5 
REMARK    3  A    between atoms: C_5  and  C_6 
REMARK    4  A    between atoms: C_6  and  C_7 
REMARK    5  A    between atoms: C_7  and  C_8 
REMARK    6  A    between atoms: N_10  and  C_19 
REMARK    7  A    between atoms: C_14  and  N_15 
REMARK    8  A    between atoms: C_19  and  C_20 
REMARK    9  A    between atoms: C_23  and  O_28 
ROOT
HETATM    1  C   UNL     1       2.887   5.782  20.764  0.00  0.00     0.050 A 
HETATM    2  C   UNL     1       2.985   6.205  22.071  0.00  0.00     0.114 A 
HETATM    3  N   UNL     1       3.989   7.146  22.138  0.00  0.00    -0.334 N 
HETATM    4  C   UNL     1       4.560   7.284  20.896  0.00  0.00     0.148 A 
HETATM    5  C   UNL     1       3.870   6.469  20.006  0.00  0.00     0.071 A 
HETATM    6  N   UNL     1       5.609   8.063  20.586  0.00  0.00    -0.200 NA
HETATM    7  C   UNL     1       5.964   8.005  19.296  0.00  0.00     0.202 A 
HETATM    8  N   UNL     1       5.361   7.302  18.336  0.00  0.00    -0.205 NA
HETATM    9  C   UNL     1       4.325   6.536  18.698  0.00  0.00     0.144 A 
HETATM   10 CL   UNL     1       3.562   5.630  17.482  0.00  0.00    -0.061 Cl
ENDROOT
BRANCH   3  11
HETATM   11  C   UNL     1       4.461   7.755  23.378  0.00  0.00     0.190 C 
BRANCH  11  12
HETATM   12  C   UNL     1       3.651   8.957  23.807  0.00  0.00     0.061 A 
HETATM   13  C   UNL     1       2.525   8.892  24.640  0.00  0.00    -0.002 A 
HETATM   14  C   UNL     1       2.035   7.596  25.239  0.00  0.00     0.053 C 
HETATM   15  C   UNL     1       1.795  10.086  24.931  0.00  0.00     0.083 A 
HETATM   16  C   UNL     1       2.205  11.299  24.367  0.00  0.00    -0.011 A 
HETATM   17  C   UNL     1       3.338  11.240  23.552  0.00  0.00     0.126 A 
HETATM   18  C   UNL     1       1.597  12.664  24.483  0.00  0.00     0.052 C 
HETATM   19  N   UNL     1       4.056  10.132  23.267  0.00  0.00    -0.263 NA
BRANCH  15  20
HETATM   20  O   UNL     1       0.735   9.832  25.758  0.00  0.00    -0.355 OA
HETATM   21  C   UNL     1      -0.610   9.972  25.354  0.00  0.00     0.210 C 
ENDBRANCH  15  20
ENDBRANCH  11  12
ENDBRANCH   3  11
BRANCH   1  22
HETATM   22  C   UNL     1       1.960   4.803  20.306  0.00  0.00    -0.064 C 
BRANCH  22  23
HETATM   23  C   UNL     1       1.085   3.943  19.863  0.00  0.00    -0.098 C 
BRANCH  23  24
HETATM   24  C   UNL     1       0.066   2.941  19.347  0.00  0.00     0.131 C 
BRANCH  24  25
HETATM   25  C   UNL     1      -0.801   3.581  18.236  0.00  0.00     0.061 C 
HETATM   26  C   UNL     1      -0.773   2.753  16.944  0.00  0.00     0.046 C 
HETATM   27  C   UNL     1      -0.375   5.027  17.947  0.00  0.00     0.046 C 
BRANCH  25  28
HETATM   28  O   UNL     1      -2.156   3.612  18.704  0.00  0.00    -0.390 OA
HETATM   29  H   UNL     1      -2.232   2.970  19.431  0.00  0.00     0.210 HD
ENDBRANCH  25  28
ENDBRANCH  24  25
ENDBRANCH  23  24
ENDBRANCH  22  23
ENDBRANCH   1  22
BRANCH   7  30
HETATM   30  N   UNL     1       7.039   8.777  18.902  0.00  0.00    -0.271 NA
HETATM   31  H   UNL     1       7.908   8.343  19.175  0.00  0.00     0.127 HD
HETATM   32  H   UNL     1       6.890   9.738  19.177  0.00  0.00     0.127 HD
ENDBRANCH   7  30
TORSDOF 9
ENDMDL
MODEL 2
REMARK VINA RESULT:    -6.776      0.966      1.712
REMARK INTER + INTRA:         -10.977
REMARK INTER:                 -10.394
REMARK INTRA:                  -0.583
REMARK UNBOUND:                -1.032
REMARK  9 active torsions:
REMARK  status: ('A' for Active; 'I' for Inactive)
REMARK    1  A    between atoms: O_1  and  C_2 
REMARK    2  A    between atoms: C_2  and  C_5 
REMARK    3  A    between atoms: C_5  and  C_6 
REMARK    4  A    between atoms: C_6  and  C_7 
REMARK    5  A    between atoms: C_7  and  C_8 
REMARK    6  A    between atoms: N_10  and  C_19 
REMARK    7  A    between atoms: C_14  and  N_15 
REMARK    8  A    between atoms: C_19  and  C_20 
REMARK    9  A    between atoms: C_23  and  O_28 
ROOT
HETATM    1  C   UNL     1       3.030   5.919  20.704  0.00  0.00     0.050 A 
HETATM    2  C   UNL     1       3.005   6.349  22.012  0.00  0.00     0.114 A 
HETATM    3  N   UNL     1       4.012   7.275  22.175  0.00  0.00    -0.334 N 
HETATM    4  C   UNL     1       4.706   7.396  20.995  0.00  0.00     0.148 A 
HETATM    5  C   UNL     1       4.094   6.586  20.044  0.00  0.00     0.071 A 
HETATM    6  N   UNL     1       5.793   8.156  20.787  0.00  0.00    -0.200 NA
HETATM    7  C   UNL     1       6.273   8.085  19.538  0.00  0.00     0.202 A 
HETATM    8  N   UNL     1       5.757   7.386  18.526  0.00  0.00    -0.205 NA
HETATM    9  C   UNL     1       4.678   6.638  18.788  0.00  0.00     0.144 A 
HETATM   10 CL   UNL     1       4.024   5.736  17.506  0.00  0.00    -0.061 Cl
ENDROOT
BRANCH   3  11
HETATM   11  C   UNL     1       4.369   7.884  23.452  0.00  0.00     0.190 C 
BRANCH  11  12
HETATM   12  C   UNL     1       3.226   8.625  24.108  0.00  0.00     0.061 A 
HETATM   13  C   UNL     1       3.059  10.016  24.060  0.00  0.00    -0.002 A 
HETATM   14  C   UNL     1       3.995  10.918  23.293  0.00  0.00     0.053 C 
HETATM   15  C   UNL     1       1.976  10.620  24.771  0.00  0.00     0.083 A 
HETATM   16  C   UNL     1       1.108   9.816  25.517  0.00  0.00    -0.011 A 
HETATM   17  C   UNL     1       1.375   8.445  25.491  0.00  0.00     0.126 A 
HETATM   18  C   UNL     1      -0.064  10.201  26.368  0.00  0.00     0.052 C 
HETATM   19  N   UNL     1       2.382   7.842  24.822  0.00  0.00    -0.263 NA
BRANCH  15  20
HETATM   20  O   UNL     1       1.968  11.978  24.608  0.00  0.00    -0.355 OA
HETATM   21  C   UNL     1       0.839  12.696  24.160  0.00  0.00     0.210 C 
ENDBRANCH  15  20
ENDBRANCH  11  12
ENDBRANCH   3  11
BRANCH   1  22
HETATM   22  C   UNL     1       2.137   4.952  20.161  0.00  0.00    -0.064 C 
BRANCH  22  23
HETATM   23  C   UNL     1       1.312   4.097  19.624  0.00  0.00    -0.098 C 
BRANCH  23  24
HETATM   24  C   UNL     1       0.350   3.100  18.999  0.00  0.00     0.131 C 
BRANCH  24  25
HETATM   25  C   UNL     1      -0.590   3.817  17.999  0.00  0.00     0.061 C 
HETATM   26  C   UNL     1      -0.646   3.091  16.649  0.00  0.00     0.046 C 
HETATM   27  C   UNL     1      -0.189   5.284  17.795  0.00  0.00     0.046 C 
BRANCH  25  28
HETATM   28  O   UNL     1      -1.912   3.802  18.557  0.00  0.00    -0.390 OA
HETATM   29  H   UNL     1      -2.187   2.872  18.639  0.00  0.00     0.210 HD
ENDBRANCH  25  28
ENDBRANCH  24  25
ENDBRANCH  23  24
ENDBRANCH  22  23
ENDBRANCH   1  22
BRANCH   7  30
HETATM   30  N   UNL     1       7.394   8.838  19.249  0.00  0.00    -0.271 NA
HETATM   31  H   UNL     1       8.194   8.494  19.758  0.00  0.00     0.127 HD
HETATM   32  H   UNL     1       7.176   9.821  19.330  0.00  0.00     0.127 HD
ENDBRANCH   7  30
TORSDOF 9
ENDMDL
MODEL 3
REMARK VINA RESULT:    -6.737      3.610      5.334
REMARK INTER + INTRA:         -10.919
REMARK INTER:                  -9.788
REMARK INTRA:                  -1.131
REMARK UNBOUND:                -1.032
REMARK  9 active torsions:
REMARK  status: ('A' for Active; 'I' for Inactive)
REMARK    1  A    between atoms: O_1  and  C_2 
REMARK    2  A    between atoms: C_2  and  C_5 
REMARK    3  A    between atoms: C_5  and  C_6 
REMARK    4  A    between atoms: C_6  and  C_7 
REMARK    5  A    between atoms: C_7  and  C_8 
REMARK    6  A    between atoms: N_10  and  C_19 
REMARK    7  A    between atoms: C_14  and  N_15 
REMARK    8  A    between atoms: C_19  and  C_20 
REMARK    9  A    between atoms: C_23  and  O_28 
ROOT
HETATM    1  C   UNL     1       3.800   7.390  23.095  0.00  0.00     0.050 A 
HETATM    2  C   UNL     1       3.460   8.590  23.680  0.00  0.00     0.114 A 
HETATM    3  N   UNL     1       2.957   8.323  24.934  0.00  0.00    -0.334 N 
HETATM    4  C   UNL     1       2.928   6.962  25.127  0.00  0.00     0.148 A 
HETATM    5  C   UNL     1       3.483   6.352  24.007  0.00  0.00     0.071 A 
HETATM    6  N   UNL     1       2.445   6.322  26.203  0.00  0.00    -0.200 NA
HETATM    7  C   UNL     1       2.539   4.988  26.128  0.00  0.00     0.202 A 
HETATM    8  N   UNL     1       3.086   4.284  25.136  0.00  0.00    -0.205 NA
HETATM    9  C   UNL     1       3.547   4.969  24.082  0.00  0.00     0.144 A 
HETATM   10 CL   UNL     1       4.233   4.077  22.811  0.00  0.00    -0.061 Cl
ENDROOT
BRANCH   3  11
HETATM   11  C   UNL     1       2.393   9.332  25.824  0.00  0.00     0.190 C 
BRANCH  11  12
HETATM   12  C   UNL     1       1.057   9.867  25.361  0.00  0.00     0.061 A 
HETATM   13  C   UNL     1       0.888  11.078  24.675  0.00  0.00    -0.002 A 
HETATM   14  C   UNL     1       2.052  11.955  24.282  0.00  0.00     0.053 C 
HETATM   15  C   UNL     1      -0.429  11.519  24.339  0.00  0.00     0.083 A 
HETATM   16  C   UNL     1      -1.532  10.745  24.715  0.00  0.00    -0.011 A 
HETATM   17  C   UNL     1      -1.241   9.560  25.396  0.00  0.00     0.126 A 
HETATM   18  C   UNL     1      -2.996  11.002  24.520  0.00  0.00     0.052 C 
HETATM   19  N   UNL     1      -0.009   9.110  25.718  0.00  0.00    -0.263 NA
BRANCH  15  20
HETATM   20  O   UNL     1      -0.400  12.714  23.672  0.00  0.00    -0.355 OA
HETATM   21  C   UNL     1      -0.908  12.881  22.367  0.00  0.00     0.210 C 
ENDBRANCH  15  20
ENDBRANCH  11  12
ENDBRANCH   3  11
BRANCH   1  22
HETATM   22  C   UNL     1       4.350   7.264  21.787  0.00  0.00    -0.064 C 
BRANCH  22  23
HETATM   23  C   UNL     1       4.847   7.099  20.593  0.00  0.00    -0.098 C 
BRANCH  23  24
HETATM   24  C   UNL     1       5.426   6.907  19.201  0.00  0.00     0.131 C 
BRANCH  24  25
HETATM   25  C   UNL     1       4.359   6.305  18.255  0.00  0.00     0.061 C 
HETATM   26  C   UNL     1       3.211   7.289  17.992  0.00  0.00     0.046 C 
HETATM   27  C   UNL     1       3.807   4.978  18.793  0.00  0.00     0.046 C 
BRANCH  25  28
HETATM   28  O   UNL     1       4.995   6.032  16.998  0.00  0.00    -0.390 OA
HETATM   29  H   UNL     1       5.842   6.511  16.986  0.00  0.00     0.210 HD
ENDBRANCH  25  28
ENDBRANCH  24  25
ENDBRANCH  23  24
ENDBRANCH  22  23
ENDBRANCH   1  22
BRANCH   7  30
HETATM   30  N   UNL     1       2.058   4.260  27.198  0.00  0.00    -0.271 NA
HETATM   31  H   UNL     1       1.069   4.420  27.321  0.00  0.00     0.127 HD
HETATM   32  H   UNL     1       2.656   4.395  28.001  0.00  0.00     0.127 HD
ENDBRANCH   7  30
TORSDOF 9
ENDMDL
MODEL 4
REMARK VINA RESULT:    -6.706      4.074      8.096
REMARK INTER + INTRA:         -10.874
REMARK INTER:                 -10.031
REMARK INTRA:                  -0.843
REMARK UNBOUND:                -1.032
REMARK  9 active torsions:
REMARK  status: ('A' for Active; 'I' for Inactive)
REMARK    1  A    between atoms: O_1  and  C_2 
REMARK    2  A    between atoms: C_2  and  C_5 
REMARK    3  A    between atoms: C_5  and  C_6 
REMARK    4  A    between atoms: C_6  and  C_7 
REMARK    5  A    between atoms: C_7  and  C_8 
REMARK    6  A    between atoms: N_10  and  C_19 
REMARK    7  A    between atoms: C_14  and  N_15 
REMARK    8  A    between atoms: C_19  and  C_20 
REMARK    9  A    between atoms: C_23  and  O_28 
ROOT
HETATM    1  C   UNL     1       0.597   9.167  25.446  0.00  0.00     0.050 A 
HETATM    2  C   UNL     1       1.573   8.664  24.614  0.00  0.00     0.114 A 
HETATM    3  N   UNL     1       2.559   8.111  25.401  0.00  0.00    -0.334 N 
HETATM    4  C   UNL     1       2.240   8.306  26.724  0.00  0.00     0.148 A 
HETATM    5  C   UNL     1       1.001   8.932  26.785  0.00  0.00     0.071 A 
HETATM    6  N   UNL     1       2.992   7.960  27.781  0.00  0.00    -0.200 NA
HETATM    7  C   UNL     1       2.440   8.270  28.962  0.00  0.00     0.202 A 
HETATM    8  N   UNL     1       1.246   8.829  29.160  0.00  0.00    -0.205 NA
HETATM    9  C   UNL     1       0.539   9.162  28.073  0.00  0.00     0.144 A 
HETATM   10 CL   UNL     1      -0.978   9.884  28.319  0.00  0.00    -0.061 Cl
ENDROOT
BRANCH   3  11
HETATM   11  C   UNL     1       3.812   7.567  24.887  0.00  0.00     0.190 C 
BRANCH  11  12
HETATM   12  C   UNL     1       3.703   7.031  23.477  0.00  0.00     0.061 A 
HETATM   13  C   UNL     1       3.925   7.796  22.324  0.00  0.00    -0.002 A 
HETATM   14  C   UNL     1       4.351   9.243  22.382  0.00  0.00     0.053 C 
HETATM   15  C   UNL     1       3.733   7.203  21.038  0.00  0.00     0.083 A 
HETATM   16  C   UNL     1       3.309   5.872  20.949  0.00  0.00    -0.011 A 
HETATM   17  C   UNL     1       3.117   5.212  22.165  0.00  0.00     0.126 A 
HETATM   18  C   UNL     1       3.001   5.042  19.739  0.00  0.00     0.052 C 
HETATM   19  N   UNL     1       3.301   5.739  23.395  0.00  0.00    -0.263 NA
BRANCH  15  20
HETATM   20  O   UNL     1       3.998   8.093  20.033  0.00  0.00    -0.355 OA
HETATM   21  C   UNL     1       5.029   7.906  19.089  0.00  0.00     0.210 C 
ENDBRANCH  15  20
ENDBRANCH  11  12
ENDBRANCH   3  11
BRANCH   1  22
HETATM   22  C   UNL     1      -0.583   9.822  24.993  0.00  0.00    -0.064 C 
BRANCH  22  23
HETATM   23  C   UNL     1      -1.636  10.462  24.566  0.00  0.00    -0.098 C 
BRANCH  23  24
HETATM   24  C   UNL     1      -2.863  11.209  24.069  0.00  0.00     0.131 C 
BRANCH  24  25
HETATM   25  C   UNL     1      -2.438  12.446  23.240  0.00  0.00     0.061 C 
HETATM   26  C   UNL     1      -2.048  12.064  21.807  0.00  0.00     0.046 C 
HETATM   27  C   UNL     1      -1.294  13.215  23.914  0.00  0.00     0.046 C 
BRANCH  25  28
HETATM   28  O   UNL     1      -3.568  13.327  23.164  0.00  0.00    -0.390 OA
HETATM   29  H   UNL     1      -3.533  13.778  22.303  0.00  0.00     0.210 HD
ENDBRANCH  25  28
ENDBRANCH  24  25
ENDBRANCH  23  24
ENDBRANCH  22  23
ENDBRANCH   1  22
BRANCH   7  30
HETATM   30  N   UNL     1       3.158   7.948  30.097  0.00  0.00    -0.271 NA
HETATM   31  H   UNL     1       4.071   7.596  29.853  0.00  0.00     0.127 HD
HETATM   32  H   UNL     1       2.589   7.385  30.714  0.00  0.00     0.127 HD
ENDBRANCH   7  30
TORSDOF 9
ENDMDL
MODEL 5
REMARK VINA RESULT:    -6.683      4.069      7.967
REMARK INTER + INTRA:         -10.840
REMARK INTER:                 -10.051
REMARK INTRA:                  -0.790
REMARK UNBOUND:                -1.032
REMARK  9 active torsions:
REMARK  status: ('A' for Active; 'I' for Inactive)
REMARK    1  A    between atoms: O_1  and  C_2 
REMARK    2  A    between atoms: C_2  and  C_5 
REMARK    3  A    between atoms: C_5  and  C_6 
REMARK    4  A    between atoms: C_6  and  C_7 
REMARK    5  A    between atoms: C_7  and  C_8 
REMARK    6  A    between atoms: N_10  and  C_19 
REMARK    7  A    between atoms: C_14  and  N_15 
REMARK    8  A    between atoms: C_19  and  C_20 
REMARK    9  A    between atoms: C_23  and  O_28 
ROOT
HETATM    1  C   UNL     1       0.546   9.224  25.563  0.00  0.00     0.050 A 
HETATM    2  C   UNL     1       1.523   8.718  24.734  0.00  0.00     0.114 A 
HETATM    3  N   UNL     1       2.501   8.157  25.525  0.00  0.00    -0.334 N 
HETATM    4  C   UNL     1       2.177   8.349  26.847  0.00  0.00     0.148 A 
HETATM    5  C   UNL     1       0.941   8.983  26.904  0.00  0.00     0.071 A 
HETATM    6  N   UNL     1       2.921   7.996  27.907  0.00  0.00    -0.200 NA
HETATM    7  C   UNL     1       2.365   8.306  29.086  0.00  0.00     0.202 A 
HETATM    8  N   UNL     1       1.173   8.871  29.279  0.00  0.00    -0.205 NA
HETATM    9  C   UNL     1       0.474   9.212  28.189  0.00  0.00     0.144 A 
HETATM   10 CL   UNL     1      -1.039   9.943  28.430  0.00  0.00    -0.061 Cl
ENDROOT
BRANCH   3  11
HETATM   11  C   UNL     1       3.753   7.606  25.016  0.00  0.00     0.190 C 
BRANCH  11  12
HETATM   12  C   UNL     1       3.832   7.582  23.506  0.00  0.00     0.061 A 
HETATM   13  C   UNL     1       3.565   6.451  22.721  0.00  0.00    -0.002 A 
HETATM   14  C   UNL     1       3.116   5.139  23.318  0.00  0.00     0.053 C 
HETATM   15  C   UNL     1       3.732   6.522  21.304  0.00  0.00     0.083 A 
HETATM   16  C   UNL     1       4.175   7.715  20.721  0.00  0.00    -0.011 A 
HETATM   17  C   UNL     1       4.411   8.772  21.603  0.00  0.00     0.126 A 
HETATM   18  C   UNL     1       4.463   8.032  19.284  0.00  0.00     0.052 C 
HETATM   19  N   UNL     1       4.252   8.741  22.944  0.00  0.00    -0.263 NA
BRANCH  15  20
HETATM   20  O   UNL     1       3.424   5.331  20.705  0.00  0.00    -0.355 OA
HETATM   21  C   UNL     1       2.314   5.161  19.852  0.00  0.00     0.210 C 
ENDBRANCH  15  20
ENDBRANCH  11  12
ENDBRANCH   3  11
BRANCH   1  22
HETATM   22  C   UNL     1      -0.627   9.888  25.105  0.00  0.00    -0.064 C 
BRANCH  22  23
HETATM   23  C   UNL     1      -1.679  10.504  24.642  0.00  0.00    -0.098 C 
BRANCH  23  24
HETATM   24  C   UNL     1      -2.905  11.222  24.102  0.00  0.00     0.131 C 
BRANCH  24  25
HETATM   25  C   UNL     1      -2.480  12.450  23.261  0.00  0.00     0.061 C 
HETATM   26  C   UNL     1      -2.088  12.053  21.832  0.00  0.00     0.046 C 
HETATM   27  C   UNL     1      -1.337  13.227  23.927  0.00  0.00     0.046 C 
BRANCH  25  28
HETATM   28  O   UNL     1      -3.610  13.330  23.174  0.00  0.00    -0.390 OA
HETATM   29  H   UNL     1      -4.244  12.936  22.549  0.00  0.00     0.210 HD
ENDBRANCH  25  28
ENDBRANCH  24  25
ENDBRANCH  23  24
ENDBRANCH  22  23
ENDBRANCH   1  22
BRANCH   7  30
HETATM   30  N   UNL     1       3.075   7.976  30.224  0.00  0.00    -0.271 NA
HETATM   31  H   UNL     1       3.761   7.265  30.021  0.00  0.00     0.127 HD
HETATM   32  H   UNL     1       2.437   7.805  30.988  0.00  0.00     0.127 HD
ENDBRANCH   7  30
TORSDOF 9
ENDMDL
MODEL 6
REMARK VINA RESULT:    -6.666      3.490      4.429
REMARK INTER + INTRA:         -10.816
REMARK INTER:                 -10.006
REMARK INTRA:                  -0.810
REMARK UNBOUND:                -1.032
REMARK  9 active torsions:
REMARK  status: ('A' for Active; 'I' for Inactive)
REMARK    1  A    between atoms: O_1  and  C_2 
REMARK    2  A    between atoms: C_2  and  C_5 
REMARK    3  A    between atoms: C_5  and  C_6 
REMARK    4  A    between atoms: C_6  and  C_7 
REMARK    5  A    between atoms: C_7  and  C_8 
REMARK    6  A    between atoms: N_10  and  C_19 
REMARK    7  A    between atoms: C_14  and  N_15 
REMARK    8  A    between atoms: C_19  and  C_20 
REMARK    9  A    between atoms: C_23  and  O_28 
ROOT
HETATM    1  C   UNL     1       3.418   5.626  18.781  0.00  0.00     0.050 A 
HETATM    2  C   UNL     1       4.222   6.068  19.808  0.00  0.00     0.114 A 
HETATM    3  N   UNL     1       4.027   7.425  19.946  0.00  0.00    -0.334 N 
HETATM    4  C   UNL     1       3.146   7.852  18.982  0.00  0.00     0.148 A 
HETATM    5  C   UNL     1       2.719   6.744  18.260  0.00  0.00     0.071 A 
HETATM    6  N   UNL     1       2.762   9.120  18.763  0.00  0.00    -0.200 NA
HETATM    7  C   UNL     1       1.892   9.255  17.754  0.00  0.00     0.202 A 
HETATM    8  N   UNL     1       1.372   8.275  17.014  0.00  0.00    -0.205 NA
HETATM    9  C   UNL     1       1.794   7.030  17.267  0.00  0.00     0.144 A 
HETATM   10 CL   UNL     1       1.145   5.778  16.320  0.00  0.00    -0.061 Cl
ENDROOT
BRANCH   3  11
HETATM   11  C   UNL     1       4.780   8.273  20.864  0.00  0.00     0.190 C 
BRANCH  11  12
HETATM   12  C   UNL     1       4.444   8.035  22.319  0.00  0.00     0.061 A 
HETATM   13  C   UNL     1       5.044   7.049  23.115  0.00  0.00    -0.002 A 
HETATM   14  C   UNL     1       6.139   6.147  22.599  0.00  0.00     0.053 C 
HETATM   15  C   UNL     1       4.604   6.869  24.463  0.00  0.00     0.083 A 
HETATM   16  C   UNL     1       3.570   7.668  24.963  0.00  0.00    -0.011 A 
HETATM   17  C   UNL     1       3.049   8.614  24.077  0.00  0.00     0.126 A 
HETATM   18  C   UNL     1       2.911   7.652  26.310  0.00  0.00     0.052 C 
HETATM   19  N   UNL     1       3.449   8.817  22.803  0.00  0.00    -0.263 NA
BRANCH  15  20
HETATM   20  O   UNL     1       5.301   5.869  25.085  0.00  0.00    -0.355 OA
HETATM   21  C   UNL     1       4.701   4.674  25.534  0.00  0.00     0.210 C 
ENDBRANCH  15  20
ENDBRANCH  11  12
ENDBRANCH   3  11
BRANCH   1  22
HETATM   22  C   UNL     1       3.353   4.273  18.341  0.00  0.00    -0.064 C 
BRANCH  22  23
HETATM   23  C   UNL     1       3.312   3.020  17.981  0.00  0.00    -0.098 C 
BRANCH  23  24
HETATM   24  C   UNL     1       3.264   1.560  17.563  0.00  0.00     0.131 C 
BRANCH  24  25
HETATM   25  C   UNL     1       4.644   0.894  17.782  0.00  0.00     0.061 C 
HETATM   26  C   UNL     1       4.661  -0.558  17.287  0.00  0.00     0.046 C 
HETATM   27  C   UNL     1       5.077   0.957  19.253  0.00  0.00     0.046 C 
BRANCH  25  28
HETATM   28  O   UNL     1       5.608   1.627  17.014  0.00  0.00    -0.390 OA
HETATM   29  H   UNL     1       5.201   1.841  16.156  0.00  0.00     0.210 HD
ENDBRANCH  25  28
ENDBRANCH  24  25
ENDBRANCH  23  24
ENDBRANCH  22  23
ENDBRANCH   1  22
BRANCH   7  30
HETATM   30  N   UNL     1       1.453  10.533  17.466  0.00  0.00    -0.271 NA
HETATM   31  H   UNL     1       0.579  10.504  16.964  0.00  0.00     0.127 HD
HETATM   32  H   UNL     1       2.207  11.071  17.061  0.00  0.00     0.127 HD
ENDBRANCH   7  30
TORSDOF 9
ENDMDL
MODEL 7
REMARK VINA RESULT:    -6.662      1.300      1.849
REMARK INTER + INTRA:         -10.809
REMARK INTER:                 -10.033
REMARK INTRA:                  -0.776
REMARK UNBOUND:                -1.032
REMARK  9 active torsions:
REMARK  status: ('A' for Active; 'I' for Inactive)
REMARK    1  A    between atoms: O_1  and  C_2 
REMARK    2  A    between atoms: C_2  and  C_5 
REMARK    3  A    between atoms: C_5  and  C_6 
REMARK    4  A    between atoms: C_6  and  C_7 
REMARK    5  A    between atoms: C_7  and  C_8 
REMARK    6  A    between atoms: N_10  and  C_19 
REMARK    7  A    between atoms: C_14  and  N_15 
REMARK    8  A    between atoms: C_19  and  C_20 
REMARK    9  A    between atoms: C_23  and  O_28 
ROOT
HETATM    1  C   UNL     1       2.943   5.771  20.818  0.00  0.00     0.050 A 
HETATM    2  C   UNL     1       3.107   6.146  22.133  0.00  0.00     0.114 A 
HETATM    3  N   UNL     1       4.121   7.076  22.187  0.00  0.00    -0.334 N 
HETATM    4  C   UNL     1       4.635   7.254  20.925  0.00  0.00     0.148 A 
HETATM    5  C   UNL     1       3.895   6.477  20.040  0.00  0.00     0.071 A 
HETATM    6  N   UNL     1       5.675   8.035  20.593  0.00  0.00    -0.200 NA
HETATM    7  C   UNL     1       5.968   8.021  19.286  0.00  0.00     0.202 A 
HETATM    8  N   UNL     1       5.314   7.359  18.331  0.00  0.00    -0.205 NA
HETATM    9  C   UNL     1       4.289   6.588  18.715  0.00  0.00     0.144 A 
HETATM   10 CL   UNL     1       3.461   5.732  17.505  0.00  0.00    -0.061 Cl
ENDROOT
BRANCH   3  11
HETATM   11  C   UNL     1       4.658   7.636  23.423  0.00  0.00     0.190 C 
BRANCH  11  12
HETATM   12  C   UNL     1       3.591   8.035  24.418  0.00  0.00     0.061 A 
HETATM   13  C   UNL     1       3.382   7.396  25.648  0.00  0.00    -0.002 A 
HETATM   14  C   UNL     1       4.252   6.259  26.128  0.00  0.00     0.053 C 
HETATM   15  C   UNL     1       2.302   7.815  26.485  0.00  0.00     0.083 A 
HETATM   16  C   UNL     1       1.458   8.845  26.056  0.00  0.00    -0.011 A 
HETATM   17  C   UNL     1       1.762   9.404  24.812  0.00  0.00     0.126 A 
HETATM   18  C   UNL     1       0.250   9.435  26.720  0.00  0.00     0.052 C 
HETATM   19  N   UNL     1       2.781   9.039  24.004  0.00  0.00    -0.263 NA
BRANCH  15  20
HETATM   20  O   UNL     1       2.254   7.085  27.641  0.00  0.00    -0.355 OA
HETATM   21  C   UNL     1       2.456   7.648  28.918  0.00  0.00     0.210 C 
ENDBRANCH  15  20
ENDBRANCH  11  12
ENDBRANCH   3  11
BRANCH   1  22
HETATM   22  C   UNL     1       1.986   4.816  20.370  0.00  0.00    -0.064 C 
BRANCH  22  23
HETATM   23  C   UNL     1       1.100   3.972  19.921  0.00  0.00    -0.098 C 
BRANCH  23  24
HETATM   24  C   UNL     1       0.067   2.988  19.397  0.00  0.00     0.131 C 
BRANCH  24  25
HETATM   25  C   UNL     1      -0.793   3.650  18.293  0.00  0.00     0.061 C 
HETATM   26  C   UNL     1      -0.780   2.834  16.994  0.00  0.00     0.046 C 
HETATM   27  C   UNL     1      -0.348   5.093  18.016  0.00  0.00     0.046 C 
BRANCH  25  28
HETATM   28  O   UNL     1      -2.147   3.697  18.765  0.00  0.00    -0.390 OA
HETATM   29  H   UNL     1      -2.630   4.338  18.214  0.00  0.00     0.210 HD
ENDBRANCH  25  28
ENDBRANCH  24  25
ENDBRANCH  23  24
ENDBRANCH  22  23
ENDBRANCH   1  22
BRANCH   7  30
HETATM   30  N   UNL     1       7.030   8.799  18.869  0.00  0.00    -0.271 NA
HETATM   31  H   UNL     1       7.877   8.531  19.348  0.00  0.00     0.127 HD
HETATM   32  H   UNL     1       6.771   9.775  18.892  0.00  0.00     0.127 HD
ENDBRANCH   7  30
TORSDOF 9
ENDMDL
MODEL 8
REMARK VINA RESULT:    -6.466      3.659      7.785
REMARK INTER + INTRA:         -10.523
REMARK INTER:                  -9.759
REMARK INTRA:                  -0.764
REMARK UNBOUND:                -1.032
REMARK  9 active torsions:
REMARK  status: ('A' for Active; 'I' for Inactive)
REMARK    1  A    between atoms: O_1  and  C_2 
REMARK    2  A    between atoms: C_2  and  C_5 
REMARK    3  A    between atoms: C_5  and  C_6 
REMARK    4  A    between atoms: C_6  and  C_7 
REMARK    5  A    between atoms: C_7  and  C_8 
REMARK    6  A    between atoms: N_10  and  C_19 
REMARK    7  A    between atoms: C_14  and  N_15 
REMARK    8  A    between atoms: C_19  and  C_20 
REMARK    9  A    between atoms: C_23  and  O_28 
ROOT
HETATM    1  C   UNL     1       2.004   8.782  25.151  0.00  0.00     0.050 A 
HETATM    2  C   UNL     1       2.687   8.465  23.997  0.00  0.00     0.114 A 
HETATM    3  N   UNL     1       3.669   7.555  24.323  0.00  0.00    -0.334 N 
HETATM    4  C   UNL     1       3.647   7.335  25.679  0.00  0.00     0.148 A 
HETATM    5  C   UNL     1       2.592   8.062  26.221  0.00  0.00     0.071 A 
HETATM    6  N   UNL     1       4.495   6.559  26.372  0.00  0.00    -0.200 NA
HETATM    7  C   UNL     1       4.246   6.525  27.688  0.00  0.00     0.202 A 
HETATM    8  N   UNL     1       3.247   7.136  28.324  0.00  0.00    -0.205 NA
HETATM    9  C   UNL     1       2.433   7.904  27.589  0.00  0.00     0.144 A 
HETATM   10 CL   UNL     1       1.166   8.695  28.397  0.00  0.00    -0.061 Cl
ENDROOT
BRANCH   3  11
HETATM   11  C   UNL     1       4.669   7.056  23.384  0.00  0.00     0.190 C 
BRANCH  11  12
HETATM   12  C   UNL     1       4.120   6.798  21.999  0.00  0.00     0.061 A 
HETATM   13  C   UNL     1       4.110   7.747  20.966  0.00  0.00    -0.002 A 
HETATM   14  C   UNL     1       4.703   9.126  21.128  0.00  0.00     0.053 C 
HETATM   15  C   UNL     1       3.509   7.417  19.713  0.00  0.00     0.083 A 
HETATM   16  C   UNL     1       2.923   6.158  19.540  0.00  0.00    -0.011 A 
HETATM   17  C   UNL     1       2.992   5.298  20.639  0.00  0.00     0.126 A 
HETATM   18  C   UNL     1       2.205   5.589  18.353  0.00  0.00     0.052 C 
HETATM   19  N   UNL     1       3.562   5.575  21.831  0.00  0.00    -0.263 NA
BRANCH  15  20
HETATM   20  O   UNL     1       3.595   8.458  18.829  0.00  0.00    -0.355 OA
HETATM   21  C   UNL     1       2.465   9.100  18.280  0.00  0.00     0.210 C 
ENDBRANCH  15  20
ENDBRANCH  11  12
ENDBRANCH   3  11
BRANCH   1  22
HETATM   22  C   UNL     1       0.918   9.701  25.211  0.00  0.00    -0.064 C 
BRANCH  22  23
HETATM   23  C   UNL     1      -0.052  10.572  25.235  0.00  0.00    -0.098 C 
BRANCH  23  24
HETATM   24  C   UNL     1      -1.183  11.588  25.263  0.00  0.00     0.131 C 
BRANCH  24  25
HETATM   25  C   UNL     1      -1.202  12.404  23.947  0.00  0.00     0.061 C 
HETATM   26  C   UNL     1      -0.368  13.687  24.061  0.00  0.00     0.046 C 
HETATM   27  C   UNL     1      -2.634  12.741  23.510  0.00  0.00     0.046 C 
BRANCH  25  28
HETATM   28  O   UNL     1      -0.615  11.591  22.922  0.00  0.00    -0.390 OA
HETATM   29  H   UNL     1      -1.315  11.017  22.563  0.00  0.00     0.210 HD
ENDBRANCH  25  28
ENDBRANCH  24  25
ENDBRANCH  23  24
ENDBRANCH  22  23
ENDBRANCH   1  22
BRANCH   7  30
HETATM   30  N   UNL     1       5.081   5.749  28.468  0.00  0.00    -0.271 NA
HETATM   31  H   UNL     1       4.663   4.850  28.651  0.00  0.00     0.127 HD
HETATM   32  H   UNL     1       5.404   6.285  29.261  0.00  0.00     0.127 HD
ENDBRANCH   7  30
TORSDOF 9
ENDMDL
MODEL 9
REMARK VINA RESULT:    -6.272      2.244      3.460
REMARK INTER + INTRA:         -10.238
REMARK INTER:                  -9.206
REMARK INTRA:                  -1.032
REMARK UNBOUND:                -1.032
REMARK  9 active torsions:
REMARK  status: ('A' for Active; 'I' for Inactive)
REMARK    1  A    between atoms: O_1  and  C_2 
REMARK    2  A    between atoms: C_2  and  C_5 
REMARK    3  A    between atoms: C_5  and  C_6 
REMARK    4  A    between atoms: C_6  and  C_7 
REMARK    5  A    between atoms: C_7  and  C_8 
REMARK    6  A    between atoms: N_10  and  C_19 
REMARK    7  A    between atoms: C_14  and  N_15 
REMARK    8  A    between atoms: C_19  and  C_20 
REMARK    9  A    between atoms: C_23  and  O_28 
ROOT
HETATM    1  C   UNL     1       3.707   6.539  20.352  0.00  0.00     0.050 A 
HETATM    2  C   UNL     1       3.891   7.629  21.174  0.00  0.00     0.114 A 
HETATM    3  N   UNL     1       4.424   7.179  22.362  0.00  0.00    -0.334 N 
HETATM    4  C   UNL     1       4.530   5.810  22.318  0.00  0.00     0.148 A 
HETATM    5  C   UNL     1       4.123   5.382  21.059  0.00  0.00     0.071 A 
HETATM    6  N   UNL     1       4.949   5.012  23.314  0.00  0.00    -0.200 NA
HETATM    7  C   UNL     1       4.952   3.710  23.000  0.00  0.00     0.202 A 
HETATM    8  N   UNL     1       4.629   3.175  21.822  0.00  0.00    -0.205 NA
HETATM    9  C   UNL     1       4.211   4.012  20.864  0.00  0.00     0.144 A 
HETATM   10 CL   UNL     1       3.787   3.335  19.366  0.00  0.00    -0.061 Cl
ENDROOT
BRANCH   3  11
HETATM   11  C   UNL     1       4.665   8.026  23.527  0.00  0.00     0.190 C 
BRANCH  11  12
HETATM   12  C   UNL     1       3.406   8.638  24.098  0.00  0.00     0.061 A 
HETATM   13  C   UNL     1       3.116  10.010  24.073  0.00  0.00    -0.002 A 
HETATM   14  C   UNL     1       4.026  11.018  23.414  0.00  0.00     0.053 C 
HETATM   15  C   UNL     1       1.925  10.489  24.700  0.00  0.00     0.083 A 
HETATM   16  C   UNL     1       1.074   9.585  25.345  0.00  0.00    -0.011 A 
HETATM   17  C   UNL     1       1.468   8.245  25.308  0.00  0.00     0.126 A 
HETATM   18  C   UNL     1      -0.197   9.835  26.100  0.00  0.00     0.052 C 
HETATM   19  N   UNL     1       2.580   7.759  24.715  0.00  0.00    -0.263 NA
BRANCH  15  20
HETATM   20  O   UNL     1       1.805  11.846  24.572  0.00  0.00    -0.355 OA
HETATM   21  C   UNL     1       0.682  12.471  23.991  0.00  0.00     0.210 C 
ENDBRANCH  15  20
ENDBRANCH  11  12
ENDBRANCH   3  11
BRANCH   1  22
HETATM   22  C   UNL     1       3.166   6.610  19.037  0.00  0.00    -0.064 C 
BRANCH  22  23
HETATM   23  C   UNL     1       2.642   6.637  17.843  0.00  0.00    -0.098 C 
BRANCH  23  24
HETATM   24  C   UNL     1       2.030   6.667  16.452  0.00  0.00     0.131 C 
BRANCH  24  25
HETATM   25  C   UNL     1       0.637   5.992  16.464  0.00  0.00     0.061 C 
HETATM   26  C   UNL     1       0.653   4.667  17.238  0.00  0.00     0.046 C 
HETATM   27  C   UNL     1       0.103   5.768  15.043  0.00  0.00     0.046 C 
BRANCH  25  28
HETATM   28  O   UNL     1      -0.270   6.878  17.135  0.00  0.00    -0.390 OA
HETATM   29  H   UNL     1       0.060   7.785  17.013  0.00  0.00     0.210 HD
ENDBRANCH  25  28
ENDBRANCH  24  25
ENDBRANCH  23  24
ENDBRANCH  22  23
ENDBRANCH   1  22
BRANCH   7  30
HETATM   30  N   UNL     1       5.367   2.827  23.977  0.00  0.00    -0.271 NA
HETATM   31  H   UNL     1       5.752   3.324  24.766  0.00  0.00     0.127 HD
HETATM   32  H   UNL     1       5.932   2.099  23.563  0.00  0.00     0.127 HD
ENDBRANCH   7  30
TORSDOF 9
ENDMDL
