MODEL 1
REMARK VINA RESULT:    -8.623      0.000      0.000
REMARK INTER + INTRA:         -13.306
REMARK INTER:                 -12.027
REMARK INTRA:                  -1.279
REMARK UNBOUND:                -1.910
REMARK  6 active torsions:
REMARK  status: ('A' for Active; 'I' for Inactive)
REMARK    1  A    between atoms: C_2  and  C_3 
REMARK    2  A    between atoms: C_3  and  C_4 
REMARK    3  A    between atoms: C_10  and  O_11 
REMARK    4  A    between atoms: C_12  and  C_13 
REMARK       I    between atoms: C_13  and  N_15 
REMARK    5  A    between atoms: N_15  and  C_17 
REMARK    6  A    between atoms: C_20  and  C_21 
ROOT
HETATM    1  C   UNL     1       9.738  12.044  20.736  0.00  0.00     0.260 C 
HETATM    2  O   UNL     1      10.474  11.524  19.887  0.00  0.00    -0.267 OA
HETATM    3  N   UNL     1       8.663  12.859  20.331  0.00  0.00    -0.318 N 
HETATM    4  C   UNL     1       8.418  13.057  18.906  0.00  0.00     0.159 C 
ENDROOT
BRANCH   1   5
HETATM    5  C   UNL     1      10.000  11.647  22.167  0.00  0.00     0.066 C 
HETATM    6  C   UNL     1       9.765  10.398  22.752  0.00  0.00     0.083 C 
HETATM    7  C   UNL     1      10.106  10.101  24.081  0.00  0.00     0.069 C 
HETATM    8  C   UNL     1      10.533  11.163  24.872  0.00  0.00     0.065 A 
HETATM    9  N   UNL     1      10.828  11.230  26.202  0.00  0.00    -0.277 N 
HETATM   10  C   UNL     1      10.674  12.457  24.389  0.00  0.00     0.019 A 
HETATM   11  N   UNL     1      11.092  12.461  26.644  0.00  0.00    -0.178 NA
HETATM   12  H   UNL     1      10.825  10.470  26.877  0.00  0.00     0.189 HD
HETATM   13  C   UNL     1      11.000  13.221  25.540  0.00  0.00     0.067 A 
HETATM   14  C   UNL     1      10.442  12.693  23.016  0.00  0.00     0.035 C 
BRANCH   6  15
HETATM   15  O   UNL     1       9.044   9.426  22.125  0.00  0.00    -0.360 OA
HETATM   16  H   UNL     1       9.375   8.565  22.435  0.00  0.00     0.217 HD
ENDBRANCH   6  15
BRANCH  13  17
HETATM   17  C   UNL     1      11.195  14.699  25.668  0.00  0.00     0.062 C 
BRANCH  17  18
HETATM   18  C   UNL     1      10.007  15.481  25.101  0.00  0.00     0.002 C 
HETATM   19  C   UNL     1      10.410  16.333  23.913  0.00  0.00     0.005 C 
ENDBRANCH  17  18
ENDBRANCH  13  17
ENDBRANCH   1   5
BRANCH   3  20
HETATM   20  C   UNL     1       7.783  13.546  21.179  0.00  0.00     0.037 C 
HETATM   21  C   UNL     1       7.948  14.918  21.330  0.00  0.00     0.030 C 
HETATM   22  C   UNL     1       7.168  15.614  22.247  0.00  0.00     0.010 C 
HETATM   23  C   UNL     1       6.125  14.985  22.947  0.00  0.00    -0.054 C 
HETATM   24  C   UNL     1       5.896  13.621  22.676  0.00  0.00     0.010 C 
HETATM   25  C   UNL     1       6.718  12.903  21.798  0.00  0.00     0.030 C 
BRANCH  23  26
HETATM   26  C   UNL     1       5.338  15.736  24.025  0.00  0.00     0.022 C 
HETATM   27  C   UNL     1       3.827  15.874  23.736  0.00  0.00     0.039 C 
HETATM   28  C   UNL     1       3.119  14.522  23.884  0.00  0.00     0.272 C 
HETATM   29  N   UNL     1       3.277  13.933  25.220  0.00  0.00     0.084 N 
HETATM   30  C   UNL     1       2.464  14.625  26.217  0.00  0.00     0.309 C 
HETATM   31  C   UNL     1       4.693  13.849  25.607  0.00  0.00     0.272 C 
HETATM   32  C   UNL     1       5.465  15.164  25.451  0.00  0.00     0.039 C 
ENDBRANCH  23  26
ENDBRANCH   3  20
TORSDOF 6
ENDMDL
MODEL 2
REMARK VINA RESULT:    -8.263      0.689      1.154
REMARK INTER + INTRA:         -12.831
REMARK INTER:                 -11.405
REMARK INTRA:                  -1.425
REMARK UNBOUND:                -1.910
REMARK  6 active torsions:
REMARK  status: ('A' for Active; 'I' for Inactive)
REMARK    1  A    between atoms: C_2  and  C_3 
REMARK    2  A    between atoms: C_3  and  C_4 
REMARK    3  A    between atoms: C_10  and  O_11 
REMARK    4  A    between atoms: C_12  and  C_13 
REMARK       I    between atoms: C_13  and  N_15 
REMARK    5  A    between atoms: N_15  and  C_17 
REMARK    6  A    between atoms: C_20  and  C_21 
ROOT
HETATM    1  C   UNL     1       9.470  11.663  21.185  0.00  0.00     0.260 C 
HETATM    2  O   UNL     1      10.236  11.081  20.406  0.00  0.00    -0.267 OA
HETATM    3  N   UNL     1       8.360  12.370  20.684  0.00  0.00    -0.318 N 
HETATM    4  C   UNL     1       8.116  12.385  19.245  0.00  0.00     0.159 C 
ENDROOT
BRANCH   1   5
HETATM    5  C   UNL     1       9.741  11.453  22.654  0.00  0.00     0.066 C 
HETATM    6  C   UNL     1       9.441  10.315  23.413  0.00  0.00     0.083 C 
HETATM    7  C   UNL     1       9.794  10.185  24.765  0.00  0.00     0.069 C 
HETATM    8  C   UNL     1      10.306  11.317  25.392  0.00  0.00     0.065 A 
HETATM    9  N   UNL     1      10.635  11.549  26.696  0.00  0.00    -0.277 N 
HETATM   10  C   UNL     1      10.517  12.519  24.730  0.00  0.00     0.019 A 
HETATM   11  N   UNL     1      10.987  12.810  26.956  0.00  0.00    -0.178 NA
HETATM   12  H   UNL     1      10.601  10.892  27.471  0.00  0.00     0.189 HD
HETATM   13  C   UNL     1      10.917  13.413  25.758  0.00  0.00     0.067 A 
HETATM   14  C   UNL     1      10.268  12.576  23.341  0.00  0.00     0.035 C 
BRANCH   6  15
HETATM   15  O   UNL     1       8.646   9.315  22.939  0.00  0.00    -0.360 OA
HETATM   16  H   UNL     1       8.308   8.818  23.704  0.00  0.00     0.217 HD
ENDBRANCH   6  15
BRANCH  13  17
HETATM   17  C   UNL     1      11.207  14.878  25.673  0.00  0.00     0.062 C 
BRANCH  17  18
HETATM   18  C   UNL     1      10.110  15.633  24.916  0.00  0.00     0.002 C 
HETATM   19  C   UNL     1      10.670  16.403  23.736  0.00  0.00     0.005 C 
ENDBRANCH  17  18
ENDBRANCH  13  17
ENDBRANCH   1   5
BRANCH   3  20
HETATM   20  C   UNL     1       7.443  13.111  21.443  0.00  0.00     0.037 C 
HETATM   21  C   UNL     1       6.291  12.475  21.892  0.00  0.00     0.030 C 
HETATM   22  C   UNL     1       5.308  13.204  22.551  0.00  0.00     0.010 C 
HETATM   23  C   UNL     1       5.499  14.555  22.885  0.00  0.00    -0.054 C 
HETATM   24  C   UNL     1       6.731  15.140  22.532  0.00  0.00     0.010 C 
HETATM   25  C   UNL     1       7.699  14.425  21.815  0.00  0.00     0.030 C 
BRANCH  23  26
HETATM   26  C   UNL     1       4.372  15.374  23.522  0.00  0.00     0.022 C 
HETATM   27  C   UNL     1       3.013  14.643  23.599  0.00  0.00     0.039 C 
HETATM   28  C   UNL     1       3.057  13.523  24.645  0.00  0.00     0.272 C 
HETATM   29  N   UNL     1       3.394  14.005  25.991  0.00  0.00     0.084 N 
HETATM   30  C   UNL     1       2.279  14.724  26.604  0.00  0.00     0.309 C 
HETATM   31  C   UNL     1       4.636  14.792  25.986  0.00  0.00     0.272 C 
HETATM   32  C   UNL     1       4.667  15.909  24.937  0.00  0.00     0.039 C 
ENDBRANCH  23  26
ENDBRANCH   3  20
TORSDOF 6
ENDMDL
MODEL 3
REMARK VINA RESULT:    -8.107      1.982      4.354
REMARK INTER + INTRA:         -12.624
REMARK INTER:                 -11.282
REMARK INTRA:                  -1.341
REMARK UNBOUND:                -1.910
REMARK  6 active torsions:
REMARK  status: ('A' for Active; 'I' for Inactive)
REMARK    1  A    between atoms: C_2  and  C_3 
REMARK    2  A    between atoms: C_3  and  C_4 
REMARK    3  A    between atoms: C_10  and  O_11 
REMARK    4  A    between atoms: C_12  and  C_13 
REMARK       I    between atoms: C_13  and  N_15 
REMARK    5  A    between atoms: N_15  and  C_17 
REMARK    6  A    between atoms: C_20  and  C_21 
ROOT
HETATM    1  C   UNL     1       9.628  12.027  24.789  0.00  0.00     0.260 C 
HETATM    2  O   UNL     1      10.707  11.461  25.010  0.00  0.00    -0.267 OA
HETATM    3  N   UNL     1       9.326  13.243  25.433  0.00  0.00    -0.318 N 
HETATM    4  C   UNL     1      10.308  13.832  26.338  0.00  0.00     0.159 C 
ENDROOT
BRANCH   1   5
HETATM    5  C   UNL     1       8.762  11.400  23.725  0.00  0.00     0.066 C 
HETATM    6  C   UNL     1       8.013  10.222  23.834  0.00  0.00     0.083 C 
HETATM    7  C   UNL     1       7.178   9.751  22.809  0.00  0.00     0.069 C 
HETATM    8  C   UNL     1       7.254  10.409  21.585  0.00  0.00     0.065 A 
HETATM    9  N   UNL     1       6.670  10.137  20.382  0.00  0.00    -0.277 N 
HETATM   10  C   UNL     1       8.068  11.513  21.369  0.00  0.00     0.019 A 
HETATM   11  N   UNL     1       7.074  10.928  19.386  0.00  0.00    -0.178 NA
HETATM   12  H   UNL     1       6.014   9.392  20.166  0.00  0.00     0.189 HD
HETATM   13  C   UNL     1       7.932  11.775  19.980  0.00  0.00     0.067 A 
HETATM   14  C   UNL     1       8.799  12.035  22.458  0.00  0.00     0.035 C 
BRANCH   6  15
HETATM   15  O   UNL     1       8.159   9.362  24.881  0.00  0.00    -0.360 OA
HETATM   16  H   UNL     1       7.393   9.478  25.469  0.00  0.00     0.217 HD
ENDBRANCH   6  15
BRANCH  13  17
HETATM   17  C   UNL     1       8.630  12.797  19.140  0.00  0.00     0.062 C 
BRANCH  17  18
HETATM   18  C   UNL     1       8.371  14.220  19.643  0.00  0.00     0.002 C 
HETATM   19  C   UNL     1       9.594  14.809  20.318  0.00  0.00     0.005 C 
ENDBRANCH  17  18
ENDBRANCH  13  17
ENDBRANCH   1   5
BRANCH   3  20
HETATM   20  C   UNL     1       8.130  13.965  25.313  0.00  0.00     0.037 C 
HETATM   21  C   UNL     1       7.287  14.033  26.416  0.00  0.00     0.030 C 
HETATM   22  C   UNL     1       6.043  14.645  26.301  0.00  0.00     0.010 C 
HETATM   23  C   UNL     1       5.659  15.306  25.124  0.00  0.00    -0.054 C 
HETATM   24  C   UNL     1       6.588  15.334  24.066  0.00  0.00     0.010 C 
HETATM   25  C   UNL     1       7.817  14.668  24.156  0.00  0.00     0.030 C 
BRANCH  23  26
HETATM   26  C   UNL     1       4.251  15.890  24.975  0.00  0.00     0.022 C 
HETATM   27  C   UNL     1       3.546  15.535  23.647  0.00  0.00     0.039 C 
HETATM   28  C   UNL     1       3.148  14.055  23.622  0.00  0.00     0.272 C 
HETATM   29  N   UNL     1       2.256  13.679  24.727  0.00  0.00     0.084 N 
HETATM   30  C   UNL     1       0.902  14.191  24.529  0.00  0.00     0.309 C 
HETATM   31  C   UNL     1       2.819  14.067  26.029  0.00  0.00     0.272 C 
HETATM   32  C   UNL     1       3.267  15.531  26.107  0.00  0.00     0.039 C 
ENDBRANCH  23  26
ENDBRANCH   3  20
TORSDOF 6
ENDMDL
MODEL 4
REMARK VINA RESULT:    -8.006      2.260      4.497
REMARK INTER + INTRA:         -12.491
REMARK INTER:                 -11.122
REMARK INTRA:                  -1.369
REMARK UNBOUND:                -1.910
REMARK  6 active torsions:
REMARK  status: ('A' for Active; 'I' for Inactive)
REMARK    1  A    between atoms: C_2  and  C_3 
REMARK    2  A    between atoms: C_3  and  C_4 
REMARK    3  A    between atoms: C_10  and  O_11 
REMARK    4  A    between atoms: C_12  and  C_13 
REMARK       I    between atoms: C_13  and  N_15 
REMARK    5  A    between atoms: N_15  and  C_17 
REMARK    6  A    between atoms: C_20  and  C_21 
ROOT
HETATM    1  C   UNL     1       9.791  13.831  22.781  0.00  0.00     0.260 C 
HETATM    2  O   UNL     1      11.018  13.749  22.640  0.00  0.00    -0.267 OA
HETATM    3  N   UNL     1       9.244  14.815  23.628  0.00  0.00    -0.318 N 
HETATM    4  C   UNL     1      10.139  15.744  24.310  0.00  0.00     0.159 C 
ENDROOT
BRANCH   1   5
HETATM    5  C   UNL     1       8.966  12.915  21.913  0.00  0.00     0.066 C 
HETATM    6  C   UNL     1       8.670  13.081  20.554  0.00  0.00     0.083 C 
HETATM    7  C   UNL     1       7.946  12.136  19.810  0.00  0.00     0.069 C 
HETATM    8  C   UNL     1       7.367  11.088  20.519  0.00  0.00     0.065 A 
HETATM    9  N   UNL     1       6.530  10.088  20.118  0.00  0.00    -0.277 N 
HETATM   10  C   UNL     1       7.518  10.927  21.890  0.00  0.00     0.019 A 
HETATM   11  N   UNL     1       6.073   9.323  21.113  0.00  0.00    -0.178 NA
HETATM   12  H   UNL     1       6.196   9.898  19.177  0.00  0.00     0.189 HD
HETATM   13  C   UNL     1       6.673   9.830  22.203  0.00  0.00     0.067 A 
HETATM   14  C   UNL     1       8.355  11.826  22.586  0.00  0.00     0.035 C 
BRANCH   6  15
HETATM   15  O   UNL     1       8.924  14.244  19.892  0.00  0.00    -0.360 OA
HETATM   16  H   UNL     1       8.093  14.747  19.848  0.00  0.00     0.217 HD
ENDBRANCH   6  15
BRANCH  13  17
HETATM   17  C   UNL     1       6.354   9.236  23.538  0.00  0.00     0.062 C 
BRANCH  17  18
HETATM   18  C   UNL     1       7.401   8.204  23.967  0.00  0.00     0.002 C 
HETATM   19  C   UNL     1       8.552   8.849  24.715  0.00  0.00     0.005 C 
ENDBRANCH  17  18
ENDBRANCH  13  17
ENDBRANCH   1   5
BRANCH   3  20
HETATM   20  C   UNL     1       7.883  14.990  23.917  0.00  0.00     0.037 C 
HETATM   21  C   UNL     1       7.027  15.340  22.879  0.00  0.00     0.030 C 
HETATM   22  C   UNL     1       5.694  15.630  23.147  0.00  0.00     0.010 C 
HETATM   23  C   UNL     1       5.154  15.464  24.433  0.00  0.00    -0.054 C 
HETATM   24  C   UNL     1       6.014  14.982  25.438  0.00  0.00     0.010 C 
HETATM   25  C   UNL     1       7.372  14.746  25.186  0.00  0.00     0.030 C 
BRANCH  23  26
HETATM   26  C   UNL     1       3.712  15.881  24.738  0.00  0.00     0.022 C 
HETATM   27  C   UNL     1       2.664  15.343  23.738  0.00  0.00     0.039 C 
HETATM   28  C   UNL     1       2.471  13.832  23.912  0.00  0.00     0.272 C 
HETATM   29  N   UNL     1       2.045  13.458  25.266  0.00  0.00     0.084 N 
HETATM   30  C   UNL     1       0.646  13.805  25.509  0.00  0.00     0.309 C 
HETATM   31  C   UNL     1       2.947  14.011  26.287  0.00  0.00     0.272 C 
HETATM   32  C   UNL     1       3.206  15.516  26.148  0.00  0.00     0.039 C 
ENDBRANCH  23  26
ENDBRANCH   3  20
TORSDOF 6
ENDMDL
MODEL 5
REMARK VINA RESULT:    -7.981      1.529      2.563
REMARK INTER + INTRA:         -12.458
REMARK INTER:                 -11.273
REMARK INTRA:                  -1.185
REMARK UNBOUND:                -1.910
REMARK  6 active torsions:
REMARK  status: ('A' for Active; 'I' for Inactive)
REMARK    1  A    between atoms: C_2  and  C_3 
REMARK    2  A    between atoms: C_3  and  C_4 
REMARK    3  A    between atoms: C_10  and  O_11 
REMARK    4  A    between atoms: C_12  and  C_13 
REMARK       I    between atoms: C_13  and  N_15 
REMARK    5  A    between atoms: N_15  and  C_17 
REMARK    6  A    between atoms: C_20  and  C_21 
ROOT
HETATM    1  C   UNL     1      10.374  12.930  20.481  0.00  0.00     0.260 C 
HETATM    2  O   UNL     1      11.049  12.389  19.596  0.00  0.00    -0.267 OA
HETATM    3  N   UNL     1       8.972  12.989  20.360  0.00  0.00    -0.318 N 
HETATM    4  C   UNL     1       8.332  12.384  19.196  0.00  0.00     0.159 C 
ENDROOT
BRANCH   1   5
HETATM    5  C   UNL     1      11.133  13.387  21.702  0.00  0.00     0.066 C 
HETATM    6  C   UNL     1      12.245  14.236  21.735  0.00  0.00     0.083 C 
HETATM    7  C   UNL     1      12.846  14.661  22.931  0.00  0.00     0.069 C 
HETATM    8  C   UNL     1      12.402  14.059  24.104  0.00  0.00     0.065 A 
HETATM    9  N   UNL     1      12.846  14.166  25.390  0.00  0.00    -0.277 N 
HETATM   10  C   UNL     1      11.383  13.117  24.134  0.00  0.00     0.019 A 
HETATM   11  N   UNL     1      12.247  13.336  26.247  0.00  0.00    -0.178 NA
HETATM   12  H   UNL     1      13.589  14.763  25.743  0.00  0.00     0.189 HD
HETATM   13  C   UNL     1      11.349  12.688  25.487  0.00  0.00     0.067 A 
HETATM   14  C   UNL     1      10.717  12.806  22.927  0.00  0.00     0.035 C 
BRANCH   6  15
HETATM   15  O   UNL     1      12.926  14.586  20.607  0.00  0.00    -0.360 OA
HETATM   16  H   UNL     1      13.743  14.060  20.580  0.00  0.00     0.217 HD
ENDBRANCH   6  15
BRANCH  13  17
HETATM   17  C   UNL     1      10.508  11.624  26.118  0.00  0.00     0.062 C 
BRANCH  17  18
HETATM   18  C   UNL     1       9.026  11.788  25.770  0.00  0.00     0.002 C 
HETATM   19  C   UNL     1       8.497  10.601  24.988  0.00  0.00     0.005 C 
ENDBRANCH  17  18
ENDBRANCH  13  17
ENDBRANCH   1   5
BRANCH   3  20
HETATM   20  C   UNL     1       8.092  13.610  21.257  0.00  0.00     0.037 C 
HETATM   21  C   UNL     1       8.045  14.999  21.282  0.00  0.00     0.030 C 
HETATM   22  C   UNL     1       7.267  15.650  22.233  0.00  0.00     0.010 C 
HETATM   23  C   UNL     1       6.427  14.937  23.104  0.00  0.00    -0.054 C 
HETATM   24  C   UNL     1       6.396  13.536  22.968  0.00  0.00     0.010 C 
HETATM   25  C   UNL     1       7.222  12.873  22.052  0.00  0.00     0.030 C 
BRANCH  23  26
HETATM   26  C   UNL     1       5.652  15.658  24.211  0.00  0.00     0.022 C 
HETATM   27  C   UNL     1       4.182  15.980  23.861  0.00  0.00     0.039 C 
HETATM   28  C   UNL     1       3.337  14.701  23.831  0.00  0.00     0.272 C 
HETATM   29  N   UNL     1       3.354  13.970  25.105  0.00  0.00     0.084 N 
HETATM   30  C   UNL     1       2.552  14.642  26.126  0.00  0.00     0.309 C 
HETATM   31  C   UNL     1       4.728  13.702  25.555  0.00  0.00     0.272 C 
HETATM   32  C   UNL     1       5.634  14.939  25.575  0.00  0.00     0.039 C 
ENDBRANCH  23  26
ENDBRANCH   3  20
TORSDOF 6
ENDMDL
MODEL 6
REMARK VINA RESULT:    -7.773      2.474      4.197
REMARK INTER + INTRA:         -12.182
REMARK INTER:                 -10.568
REMARK INTRA:                  -1.614
REMARK UNBOUND:                -1.910
REMARK  6 active torsions:
REMARK  status: ('A' for Active; 'I' for Inactive)
REMARK    1  A    between atoms: C_2  and  C_3 
REMARK    2  A    between atoms: C_3  and  C_4 
REMARK    3  A    between atoms: C_10  and  O_11 
REMARK    4  A    between atoms: C_12  and  C_13 
REMARK       I    between atoms: C_13  and  N_15 
REMARK    5  A    between atoms: N_15  and  C_17 
REMARK    6  A    between atoms: C_20  and  C_21 
ROOT
HETATM    1  C   UNL     1      10.046  13.213  23.734  0.00  0.00     0.260 C 
HETATM    2  O   UNL     1      11.263  13.123  23.531  0.00  0.00    -0.267 OA
HETATM    3  N   UNL     1       9.427  14.479  23.747  0.00  0.00    -0.318 N 
HETATM    4  C   UNL     1      10.234  15.668  23.495  0.00  0.00     0.159 C 
ENDROOT
BRANCH   1   5
HETATM    5  C   UNL     1       9.296  11.909  23.834  0.00  0.00     0.066 C 
HETATM    6  C   UNL     1       9.507  10.884  24.764  0.00  0.00     0.083 C 
HETATM    7  C   UNL     1       8.710   9.729  24.822  0.00  0.00     0.069 C 
HETATM    8  C   UNL     1       7.793   9.548  23.791  0.00  0.00     0.065 A 
HETATM    9  N   UNL     1       6.965   8.502  23.501  0.00  0.00    -0.277 N 
HETATM   10  C   UNL     1       7.614  10.467  22.766  0.00  0.00     0.019 A 
HETATM   11  N   UNL     1       6.304   8.630  22.347  0.00  0.00    -0.178 NA
HETATM   12  H   UNL     1       6.836   7.646  24.033  0.00  0.00     0.189 HD
HETATM   13  C   UNL     1       6.696   9.831  21.889  0.00  0.00     0.067 A 
HETATM   14  C   UNL     1       8.344  11.675  22.809  0.00  0.00     0.035 C 
BRANCH   6  15
HETATM   15  O   UNL     1      10.599  10.856  25.578  0.00  0.00    -0.360 OA
HETATM   16  H   UNL     1      10.853   9.925  25.700  0.00  0.00     0.217 HD
ENDBRANCH   6  15
BRANCH  13  17
HETATM   17  C   UNL     1       6.179  10.297  20.565  0.00  0.00     0.062 C 
BRANCH  17  18
HETATM   18  C   UNL     1       4.694  10.665  20.631  0.00  0.00     0.002 C 
HETATM   19  C   UNL     1       4.402  11.623  21.769  0.00  0.00     0.005 C 
ENDBRANCH  17  18
ENDBRANCH  13  17
ENDBRANCH   1   5
BRANCH   3  20
HETATM   20  C   UNL     1       8.073  14.732  24.011  0.00  0.00     0.037 C 
HETATM   21  C   UNL     1       7.234  15.017  22.941  0.00  0.00     0.030 C 
HETATM   22  C   UNL     1       5.912  15.382  23.173  0.00  0.00     0.010 C 
HETATM   23  C   UNL     1       5.362  15.355  24.465  0.00  0.00    -0.054 C 
HETATM   24  C   UNL     1       6.201  14.934  25.516  0.00  0.00     0.010 C 
HETATM   25  C   UNL     1       7.549  14.624  25.294  0.00  0.00     0.030 C 
BRANCH  23  26
HETATM   26  C   UNL     1       3.937  15.852  24.722  0.00  0.00     0.022 C 
HETATM   27  C   UNL     1       2.896  15.383  23.681  0.00  0.00     0.039 C 
HETATM   28  C   UNL     1       2.611  13.885  23.835  0.00  0.00     0.272 C 
HETATM   29  N   UNL     1       2.115  13.527  25.170  0.00  0.00     0.084 N 
HETATM   30  C   UNL     1       0.730  13.953  25.366  0.00  0.00     0.309 C 
HETATM   31  C   UNL     1       3.010  14.020  26.227  0.00  0.00     0.272 C 
HETATM   32  C   UNL     1       3.360  15.508  26.110  0.00  0.00     0.039 C 
ENDBRANCH  23  26
ENDBRANCH   3  20
TORSDOF 6
ENDMDL
MODEL 7
REMARK VINA RESULT:    -7.766      2.499      4.350
REMARK INTER + INTRA:         -12.173
REMARK INTER:                 -10.589
REMARK INTRA:                  -1.584
REMARK UNBOUND:                -1.910
REMARK  6 active torsions:
REMARK  status: ('A' for Active; 'I' for Inactive)
REMARK    1  A    between atoms: C_2  and  C_3 
REMARK    2  A    between atoms: C_3  and  C_4 
REMARK    3  A    between atoms: C_10  and  O_11 
REMARK    4  A    between atoms: C_12  and  C_13 
REMARK       I    between atoms: C_13  and  N_15 
REMARK    5  A    between atoms: N_15  and  C_17 
REMARK    6  A    between atoms: C_20  and  C_21 
ROOT
HETATM    1  C   UNL     1      11.946  12.937  25.903  0.00  0.00     0.260 C 
HETATM    2  O   UNL     1      12.933  12.786  26.634  0.00  0.00    -0.267 OA
HETATM    3  N   UNL     1      10.871  13.741  26.329  0.00  0.00    -0.318 N 
HETATM    4  C   UNL     1      10.952  14.409  27.625  0.00  0.00     0.159 C 
ENDROOT
BRANCH   1   5
HETATM    5  C   UNL     1      12.041  12.319  24.530  0.00  0.00     0.066 C 
HETATM    6  C   UNL     1      12.400  11.001  24.222  0.00  0.00     0.083 C 
HETATM    7  C   UNL     1      12.395  10.496  22.912  0.00  0.00     0.069 C 
HETATM    8  C   UNL     1      12.189  11.413  21.886  0.00  0.00     0.065 A 
HETATM    9  N   UNL     1      12.234  11.267  20.530  0.00  0.00    -0.277 N 
HETATM   10  C   UNL     1      11.947  12.761  22.113  0.00  0.00     0.019 A 
HETATM   11  N   UNL     1      12.101  12.409  19.852  0.00  0.00    -0.178 NA
HETATM   12  H   UNL     1      12.394  10.413  20.003  0.00  0.00     0.189 HD
HETATM   13  C   UNL     1      11.925  13.331  20.813  0.00  0.00     0.067 A 
HETATM   14  C   UNL     1      11.835  13.210  23.447  0.00  0.00     0.035 C 
BRANCH   6  15
HETATM   15  O   UNL     1      12.932  10.157  25.150  0.00  0.00    -0.360 OA
HETATM   16  H   UNL     1      12.481   9.300  25.064  0.00  0.00     0.217 HD
ENDBRANCH   6  15
BRANCH  13  17
HETATM   17  C   UNL     1      11.785  14.766  20.414  0.00  0.00     0.062 C 
BRANCH  17  18
HETATM   18  C   UNL     1      10.380  15.302  20.704  0.00  0.00     0.002 C 
HETATM   19  C   UNL     1      10.411  16.462  21.679  0.00  0.00     0.005 C 
ENDBRANCH  17  18
ENDBRANCH  13  17
ENDBRANCH   1   5
BRANCH   3  20
HETATM   20  C   UNL     1       9.676  13.960  25.629  0.00  0.00     0.037 C 
HETATM   21  C   UNL     1       8.751  12.924  25.561  0.00  0.00     0.030 C 
HETATM   22  C   UNL     1       7.607  13.066  24.784  0.00  0.00     0.010 C 
HETATM   23  C   UNL     1       7.296  14.282  24.154  0.00  0.00    -0.054 C 
HETATM   24  C   UNL     1       8.186  15.356  24.349  0.00  0.00     0.010 C 
HETATM   25  C   UNL     1       9.370  15.200  25.081  0.00  0.00     0.030 C 
BRANCH  23  26
HETATM   26  C   UNL     1       6.086  14.396  23.222  0.00  0.00     0.022 C 
HETATM   27  C   UNL     1       5.043  13.268  23.383  0.00  0.00     0.039 C 
HETATM   28  C   UNL     1       4.284  13.415  24.708  0.00  0.00     0.272 C 
HETATM   29  N   UNL     1       3.588  14.702  24.833  0.00  0.00     0.084 N 
HETATM   30  C   UNL     1       2.400  14.761  23.985  0.00  0.00     0.309 C 
HETATM   31  C   UNL     1       4.501  15.832  24.603  0.00  0.00     0.272 C 
HETATM   32  C   UNL     1       5.314  15.728  23.307  0.00  0.00     0.039 C 
ENDBRANCH  23  26
ENDBRANCH   3  20
TORSDOF 6
ENDMDL
MODEL 8
REMARK VINA RESULT:    -7.758      1.695      3.339
REMARK INTER + INTRA:         -12.163
REMARK INTER:                 -10.665
REMARK INTRA:                  -1.498
REMARK UNBOUND:                -1.910
REMARK  6 active torsions:
REMARK  status: ('A' for Active; 'I' for Inactive)
REMARK    1  A    between atoms: C_2  and  C_3 
REMARK    2  A    between atoms: C_3  and  C_4 
REMARK    3  A    between atoms: C_10  and  O_11 
REMARK    4  A    between atoms: C_12  and  C_13 
REMARK       I    between atoms: C_13  and  N_15 
REMARK    5  A    between atoms: N_15  and  C_17 
REMARK    6  A    between atoms: C_20  and  C_21 
ROOT
HETATM    1  C   UNL     1       9.876  14.549  21.569  0.00  0.00     0.260 C 
HETATM    2  O   UNL     1      10.864  14.757  20.854  0.00  0.00    -0.267 OA
HETATM    3  N   UNL     1       8.594  14.463  20.990  0.00  0.00    -0.318 N 
HETATM    4  C   UNL     1       8.457  14.597  19.543  0.00  0.00     0.159 C 
ENDROOT
BRANCH   1   5
HETATM    5  C   UNL     1      10.160  14.281  23.025  0.00  0.00     0.066 C 
HETATM    6  C   UNL     1      10.667  15.186  23.966  0.00  0.00     0.083 C 
HETATM    7  C   UNL     1      10.836  14.863  25.322  0.00  0.00     0.069 C 
HETATM    8  C   UNL     1      10.647  13.531  25.678  0.00  0.00     0.065 A 
HETATM    9  N   UNL     1      10.836  12.885  26.864  0.00  0.00    -0.277 N 
HETATM   10  C   UNL     1      10.261  12.553  24.772  0.00  0.00     0.019 A 
HETATM   11  N   UNL     1      10.665  11.562  26.801  0.00  0.00    -0.178 NA
HETATM   12  H   UNL     1      11.125  13.288  27.752  0.00  0.00     0.189 HD
HETATM   13  C   UNL     1      10.313  11.349  25.522  0.00  0.00     0.067 A 
HETATM   14  C   UNL     1       9.979  12.938  23.443  0.00  0.00     0.035 C 
BRANCH   6  15
HETATM   15  O   UNL     1      11.183  16.395  23.606  0.00  0.00    -0.360 OA
HETATM   16  H   UNL     1      11.922  16.232  22.995  0.00  0.00     0.217 HD
ENDBRANCH   6  15
BRANCH  13  17
HETATM   17  C   UNL     1      10.080   9.942  25.067  0.00  0.00     0.062 C 
BRANCH  17  18
HETATM   18  C   UNL     1       8.614   9.701  24.694  0.00  0.00     0.002 C 
HETATM   19  C   UNL     1       8.440   9.505  23.201  0.00  0.00     0.005 C 
ENDBRANCH  17  18
ENDBRANCH  13  17
ENDBRANCH   1   5
BRANCH   3  20
HETATM   20  C   UNL     1       7.388  14.280  21.681  0.00  0.00     0.037 C 
HETATM   21  C   UNL     1       6.832  13.006  21.713  0.00  0.00     0.030 C 
HETATM   22  C   UNL     1       5.583  12.809  22.292  0.00  0.00     0.010 C 
HETATM   23  C   UNL     1       4.913  13.848  22.958  0.00  0.00    -0.054 C 
HETATM   24  C   UNL     1       5.561  15.097  23.023  0.00  0.00     0.010 C 
HETATM   25  C   UNL     1       6.790  15.315  22.389  0.00  0.00     0.030 C 
BRANCH  23  26
HETATM   26  C   UNL     1       3.497  13.645  23.505  0.00  0.00     0.022 C 
HETATM   27  C   UNL     1       3.418  12.759  24.768  0.00  0.00     0.039 C 
HETATM   28  C   UNL     1       3.994  13.493  25.984  0.00  0.00     0.272 C 
HETATM   29  N   UNL     1       3.306  14.760  26.270  0.00  0.00     0.084 N 
HETATM   30  C   UNL     1       1.985  14.539  26.854  0.00  0.00     0.309 C 
HETATM   31  C   UNL     1       3.260  15.627  25.084  0.00  0.00     0.272 C 
HETATM   32  C   UNL     1       2.723  14.939  23.824  0.00  0.00     0.039 C 
ENDBRANCH  23  26
ENDBRANCH   3  20
TORSDOF 6
ENDMDL
MODEL 9
REMARK VINA RESULT:    -7.499      2.887      6.188
REMARK INTER + INTRA:         -11.820
REMARK INTER:                  -9.910
REMARK INTRA:                  -1.910
REMARK UNBOUND:                -1.910
REMARK  6 active torsions:
REMARK  status: ('A' for Active; 'I' for Inactive)
REMARK    1  A    between atoms: C_2  and  C_3 
REMARK    2  A    between atoms: C_3  and  C_4 
REMARK    3  A    between atoms: C_10  and  O_11 
REMARK    4  A    between atoms: C_12  and  C_13 
REMARK       I    between atoms: C_13  and  N_15 
REMARK    5  A    between atoms: N_15  and  C_17 
REMARK    6  A    between atoms: C_20  and  C_21 
ROOT
HETATM    1  C   UNL     1       4.613  13.227  24.618  0.00  0.00     0.260 C 
HETATM    2  O   UNL     1       3.541  13.037  25.209  0.00  0.00    -0.267 OA
HETATM    3  N   UNL     1       5.351  14.401  24.861  0.00  0.00    -0.318 N 
HETATM    4  C   UNL     1       4.850  15.370  25.829  0.00  0.00     0.159 C 
ENDROOT
BRANCH   1   5
HETATM    5  C   UNL     1       5.099  12.089  23.755  0.00  0.00     0.066 C 
HETATM    6  C   UNL     1       4.459  11.548  22.634  0.00  0.00     0.083 C 
HETATM    7  C   UNL     1       5.024  10.530  21.850  0.00  0.00     0.069 C 
HETATM    8  C   UNL     1       6.187   9.938  22.333  0.00  0.00     0.065 A 
HETATM    9  N   UNL     1       6.909   8.874  21.876  0.00  0.00    -0.277 N 
HETATM   10  C   UNL     1       6.813  10.344  23.504  0.00  0.00     0.019 A 
HETATM   11  N   UNL     1       7.915   8.511  22.675  0.00  0.00    -0.178 NA
HETATM   12  H   UNL     1       6.738   8.321  21.041  0.00  0.00     0.189 HD
HETATM   13  C   UNL     1       7.865   9.406  23.676  0.00  0.00     0.067 A 
HETATM   14  C   UNL     1       6.286  11.453  24.201  0.00  0.00     0.035 C 
BRANCH   6  15
HETATM   15  O   UNL     1       3.171  11.856  22.314  0.00  0.00    -0.360 OA
HETATM   16  H   UNL     1       2.725  11.032  22.052  0.00  0.00     0.217 HD
ENDBRANCH   6  15
BRANCH  13  17
HETATM   17  C   UNL     1       8.839   9.276  24.804  0.00  0.00     0.062 C 
BRANCH  17  18
HETATM   18  C   UNL     1       9.985  10.285  24.684  0.00  0.00     0.002 C 
HETATM   19  C   UNL     1       9.766  11.493  25.574  0.00  0.00     0.005 C 
ENDBRANCH  17  18
ENDBRANCH  13  17
ENDBRANCH   1   5
BRANCH   3  20
HETATM   20  C   UNL     1       6.550  14.766  24.231  0.00  0.00     0.037 C 
HETATM   21  C   UNL     1       6.504  15.153  22.896  0.00  0.00     0.030 C 
HETATM   22  C   UNL     1       7.684  15.414  22.209  0.00  0.00     0.010 C 
HETATM   23  C   UNL     1       8.927  15.414  22.862  0.00  0.00    -0.054 C 
HETATM   24  C   UNL     1       8.930  15.148  24.245  0.00  0.00     0.010 C 
HETATM   25  C   UNL     1       7.750  14.825  24.929  0.00  0.00     0.030 C 
BRANCH  23  26
HETATM   26  C   UNL     1      10.227  15.606  22.076  0.00  0.00     0.022 C 
HETATM   27  C   UNL     1      11.478  14.997  22.746  0.00  0.00     0.039 C 
HETATM   28  C   UNL     1      11.437  13.465  22.684  0.00  0.00     0.272 C 
HETATM   29  N   UNL     1      11.355  12.947  21.312  0.00  0.00     0.084 N 
HETATM   30  C   UNL     1      12.626  13.080  20.605  0.00  0.00     0.309 C 
HETATM   31  C   UNL     1      10.235  13.550  20.575  0.00  0.00     0.272 C 
HETATM   32  C   UNL     1      10.202  15.082  20.626  0.00  0.00     0.039 C 
ENDBRANCH  23  26
ENDBRANCH   3  20
TORSDOF 6
ENDMDL
