MODEL 1
REMARK VINA RESULT:    -6.173      0.000      0.000
REMARK INTER + INTRA:          -8.934
REMARK INTER:                  -7.936
REMARK INTRA:                  -0.999
REMARK UNBOUND:                -0.956
REMARK  5 active torsions:
REMARK  status: ('A' for Active; 'I' for Inactive)
REMARK    1  A    between atoms: N8_1  and  C24_2 
REMARK    2  A    between atoms: N8_1  and  C7_8 
REMARK    3  A    between atoms: C2_13  and  N1_14 
REMARK    4  A    between atoms: N1_14  and  C17_15 
REMARK    5  A    between atoms: C14_16  and  C13_19 
ROOT
ATOM      1  C17 FTA A   1       7.557  13.470  11.597  1.00  0.00     0.142 C 
ATOM      2  C14 FTA A   1       8.374  12.556  11.036  1.00  0.00     0.158 C 
ATOM      3  C18 FTA A   1       9.801  12.786  10.990  1.00  0.00     0.069 C 
ATOM      4  N21 FTA A   1      10.922  13.131  10.972  1.00  0.00    -0.197 NA
ENDROOT
BRANCH   2   5
ATOM      5  C13 FTA A   1       7.799  11.308  10.481  1.00  0.00     0.197 A 
ATOM      6  N15 FTA A   1       8.145  10.010  10.848  1.00  0.00    -0.093 NA
ATOM      7  N19 FTA A   1       7.405   9.141  10.056  1.00  0.00    -0.231 N 
ATOM      8  N20 FTA A   1       6.603   9.879   9.198  1.00  0.00    -0.017 NA
ATOM      9  H15 FTA A   1       7.445   8.112  10.099  1.00  0.00     0.200 HD
ATOM     10  N16 FTA A   1       6.837  11.223   9.468  1.00  0.00    -0.090 NA
ENDBRANCH   2   5
BRANCH   1  11
ATOM     11  N1  FTA A   1       6.506  13.925  10.889  1.00  0.00    -0.389 N 
ATOM     12  H11 FTA A   1       6.635  14.055   9.875  1.00  0.00     0.159 HD
BRANCH  11  13
ATOM     13  C2  FTA A   1       5.231  14.241  11.435  1.00  0.00     0.028 A 
ATOM     14  C4  FTA A   1       4.082  13.534  11.090  1.00  0.00     0.031 A 
ATOM     15  C6  FTA A   1       2.833  14.036  11.479  1.00  0.00     0.031 A 
ATOM     16  C7  FTA A   1       2.703  15.222  12.197  1.00  0.00     0.032 A 
ATOM     17  C5  FTA A   1       3.855  15.899  12.553  1.00  0.00     0.031 A 
ATOM     18  C3  FTA A   1       5.102  15.425  12.166  1.00  0.00     0.031 A 
BRANCH  16  19
ATOM     19  N8  FTA A   1       1.453  15.854  12.419  1.00  0.00    -0.356 N 
ATOM     20  H1  FTA A   1       1.250  16.705  11.873  1.00  0.00     0.166 HD
BRANCH  19  21
ATOM     21  C24 FTA A   1       0.452  15.410  13.335  1.00  0.00     0.032 A 
ATOM     22  C26 FTA A   1       0.535  15.682  14.680  1.00  0.00     0.029 A 
ATOM     23  C28 FTA A   1      -0.369  15.079  15.534  1.00  0.00     0.002 A 
ATOM     24  C30 FTA A   1      -1.372  14.239  15.082  1.00  0.00     0.000 A 
ATOM     25  C29 FTA A   1      -1.489  13.991  13.740  1.00  0.00     0.002 A 
ATOM     26  C27 FTA A   1      -0.573  14.596  12.873  1.00  0.00     0.029 A 
ENDBRANCH  19  21
ENDBRANCH  16  19
ENDBRANCH  11  13
ENDBRANCH   1  11
TORSDOF 5
ENDMDL
MODEL 2
REMARK VINA RESULT:    -6.149      3.516      5.677
REMARK INTER + INTRA:          -8.903
REMARK INTER:                  -7.922
REMARK INTRA:                  -0.981
REMARK UNBOUND:                -0.956
REMARK  5 active torsions:
REMARK  status: ('A' for Active; 'I' for Inactive)
REMARK    1  A    between atoms: N8_1  and  C24_2 
REMARK    2  A    between atoms: N8_1  and  C7_8 
REMARK    3  A    between atoms: C2_13  and  N1_14 
REMARK    4  A    between atoms: N1_14  and  C17_15 
REMARK    5  A    between atoms: C14_16  and  C13_19 
ROOT
ATOM      1  C17 FTA A   1       5.058  13.190   9.523  1.00  0.00     0.142 C 
ATOM      2  C14 FTA A   1       5.414  12.070   8.862  1.00  0.00     0.158 C 
ATOM      3  C18 FTA A   1       4.821  11.764   7.578  1.00  0.00     0.069 C 
ATOM      4  N21 FTA A   1       4.220  11.616   6.583  1.00  0.00    -0.197 NA
ENDROOT
BRANCH   2   5
ATOM      5  C13 FTA A   1       6.427  11.167   9.454  1.00  0.00     0.197 A 
ATOM      6  N15 FTA A   1       6.618   9.824   9.134  1.00  0.00    -0.093 NA
ATOM      7  N19 FTA A   1       7.633   9.341   9.950  1.00  0.00    -0.231 N 
ATOM      8  N20 FTA A   1       8.077  10.362  10.777  1.00  0.00    -0.017 NA
ATOM      9  H15 FTA A   1       7.999   8.378   9.942  1.00  0.00     0.200 HD
ATOM     10  N16 FTA A   1       7.338  11.498  10.464  1.00  0.00    -0.090 NA
ENDBRANCH   2   5
BRANCH   1  11
ATOM     11  N1  FTA A   1       4.644  13.089  10.801  1.00  0.00    -0.389 N 
ATOM     12  H11 FTA A   1       4.058  12.279  11.048  1.00  0.00     0.159 HD
BRANCH  11  13
ATOM     13  C2  FTA A   1       4.954  14.015  11.834  1.00  0.00     0.028 A 
ATOM     14  C4  FTA A   1       4.220  15.182  12.029  1.00  0.00     0.031 A 
ATOM     15  C6  FTA A   1       4.713  16.157  12.906  1.00  0.00     0.031 A 
ATOM     16  C7  FTA A   1       5.916  15.998  13.589  1.00  0.00     0.032 A 
ATOM     17  C5  FTA A   1       6.621  14.822  13.403  1.00  0.00     0.031 A 
ATOM     18  C3  FTA A   1       6.156  13.849  12.528  1.00  0.00     0.031 A 
BRANCH  16  19
ATOM     19  N8  FTA A   1       6.535  17.049  14.313  1.00  0.00    -0.356 N 
ATOM     20  H1  FTA A   1       6.412  18.007  13.953  1.00  0.00     0.166 HD
BRANCH  19  21
ATOM     21  C24 FTA A   1       7.313  16.889  15.499  1.00  0.00     0.032 A 
ATOM     22  C26 FTA A   1       6.738  16.528  16.695  1.00  0.00     0.029 A 
ATOM     23  C28 FTA A   1       7.513  16.559  17.838  1.00  0.00     0.002 A 
ATOM     24  C30 FTA A   1       8.852  16.909  17.819  1.00  0.00     0.000 A 
ATOM     25  C29 FTA A   1       9.446  17.234  16.628  1.00  0.00     0.002 A 
ATOM     26  C27 FTA A   1       8.663  17.207  15.469  1.00  0.00     0.029 A 
ENDBRANCH  19  21
ENDBRANCH  16  19
ENDBRANCH  11  13
ENDBRANCH   1  11
TORSDOF 5
ENDMDL
MODEL 3
REMARK VINA RESULT:    -6.083      1.691      2.603
REMARK INTER + INTRA:          -8.818
REMARK INTER:                  -7.712
REMARK INTRA:                  -1.105
REMARK UNBOUND:                -0.956
REMARK  5 active torsions:
REMARK  status: ('A' for Active; 'I' for Inactive)
REMARK    1  A    between atoms: N8_1  and  C24_2 
REMARK    2  A    between atoms: N8_1  and  C7_8 
REMARK    3  A    between atoms: C2_13  and  N1_14 
REMARK    4  A    between atoms: N1_14  and  C17_15 
REMARK    5  A    between atoms: C14_16  and  C13_19 
ROOT
ATOM      1  C17 FTA A   1       6.096  13.501   8.636  1.00  0.00     0.142 C 
ATOM      2  C14 FTA A   1       5.914  12.169   8.535  1.00  0.00     0.158 C 
ATOM      3  C18 FTA A   1       4.930  11.638   7.616  1.00  0.00     0.069 C 
ATOM      4  N21 FTA A   1       4.064  11.355   6.878  1.00  0.00    -0.197 NA
ENDROOT
BRANCH   2   5
ATOM      5  C13 FTA A   1       6.738  11.257   9.359  1.00  0.00     0.197 A 
ATOM      6  N15 FTA A   1       6.962   9.904   9.115  1.00  0.00    -0.093 NA
ATOM      7  N19 FTA A   1       7.749   9.416  10.150  1.00  0.00    -0.231 N 
ATOM      8  N20 FTA A   1       8.018  10.445  11.041  1.00  0.00    -0.017 NA
ATOM      9  H15 FTA A   1       8.080   8.445  10.243  1.00  0.00     0.200 HD
ATOM     10  N16 FTA A   1       7.401  11.590  10.546  1.00  0.00    -0.090 NA
ENDBRANCH   2   5
BRANCH   1  11
ATOM     11  N1  FTA A   1       6.036  14.076   9.852  1.00  0.00    -0.389 N 
ATOM     12  H11 FTA A   1       6.926  14.249  10.342  1.00  0.00     0.159 HD
BRANCH  11  13
ATOM     13  C2  FTA A   1       4.838  14.463  10.512  1.00  0.00     0.028 A 
ATOM     14  C4  FTA A   1       4.097  13.574  11.287  1.00  0.00     0.031 A 
ATOM     15  C6  FTA A   1       2.817  13.949  11.716  1.00  0.00     0.031 A 
ATOM     16  C7  FTA A   1       2.260  15.183  11.392  1.00  0.00     0.032 A 
ATOM     17  C5  FTA A   1       3.018  16.065  10.643  1.00  0.00     0.031 A 
ATOM     18  C3  FTA A   1       4.284  15.707  10.196  1.00  0.00     0.031 A 
BRANCH  16  19
ATOM     19  N8  FTA A   1       0.899  15.500  11.634  1.00  0.00    -0.356 N 
ATOM     20  H1  FTA A   1       0.377  15.956  10.872  1.00  0.00     0.166 HD
BRANCH  19  21
ATOM     21  C24 FTA A   1       0.192  15.240  12.848  1.00  0.00     0.032 A 
ATOM     22  C26 FTA A   1       0.617  15.750  14.052  1.00  0.00     0.029 A 
ATOM     23  C28 FTA A   1      -0.007  15.322  15.209  1.00  0.00     0.002 A 
ATOM     24  C30 FTA A   1      -1.061  14.425  15.196  1.00  0.00     0.000 A 
ATOM     25  C29 FTA A   1      -1.518  13.939  14.000  1.00  0.00     0.002 A 
ATOM     26  C27 FTA A   1      -0.886  14.367  12.827  1.00  0.00     0.029 A 
ENDBRANCH  19  21
ENDBRANCH  16  19
ENDBRANCH  11  13
ENDBRANCH   1  11
TORSDOF 5
ENDMDL
MODEL 4
REMARK VINA RESULT:    -6.025      1.054      1.467
REMARK INTER + INTRA:          -8.743
REMARK INTER:                  -7.754
REMARK INTRA:                  -0.989
REMARK UNBOUND:                -0.956
REMARK  5 active torsions:
REMARK  status: ('A' for Active; 'I' for Inactive)
REMARK    1  A    between atoms: N8_1  and  C24_2 
REMARK    2  A    between atoms: N8_1  and  C7_8 
REMARK    3  A    between atoms: C2_13  and  N1_14 
REMARK    4  A    between atoms: N1_14  and  C17_15 
REMARK    5  A    between atoms: C14_16  and  C13_19 
ROOT
ATOM      1  C17 FTA A   1       7.588  13.278  11.699  1.00  0.00     0.142 C 
ATOM      2  C14 FTA A   1       7.670  12.911  10.404  1.00  0.00     0.158 C 
ATOM      3  C18 FTA A   1       8.172  13.839   9.415  1.00  0.00     0.069 C 
ATOM      4  N21 FTA A   1       8.540  14.709   8.720  1.00  0.00    -0.197 NA
ENDROOT
BRANCH   2   5
ATOM      5  C13 FTA A   1       7.256  11.545  10.008  1.00  0.00     0.197 A 
ATOM      6  N15 FTA A   1       7.882  10.356  10.378  1.00  0.00    -0.093 NA
ATOM      7  N19 FTA A   1       7.205   9.316   9.755  1.00  0.00    -0.231 N 
ATOM      8  N20 FTA A   1       6.167   9.838   8.998  1.00  0.00    -0.017 NA
ATOM      9  H15 FTA A   1       7.438   8.316   9.841  1.00  0.00     0.200 HD
ATOM     10  N16 FTA A   1       6.190  11.219   9.162  1.00  0.00    -0.090 NA
ENDBRANCH   2   5
BRANCH   1  11
ATOM     11  N1  FTA A   1       6.415  13.132  12.345  1.00  0.00    -0.389 N 
ATOM     12  H11 FTA A   1       6.331  12.346  13.005  1.00  0.00     0.159 HD
BRANCH  11  13
ATOM     13  C2  FTA A   1       5.285  13.980  12.185  1.00  0.00     0.028 A 
ATOM     14  C4  FTA A   1       5.164  15.188  12.865  1.00  0.00     0.031 A 
ATOM     15  C6  FTA A   1       3.934  15.860  12.844  1.00  0.00     0.031 A 
ATOM     16  C7  FTA A   1       2.827  15.357  12.165  1.00  0.00     0.032 A 
ATOM     17  C5  FTA A   1       2.972  14.167  11.473  1.00  0.00     0.031 A 
ATOM     18  C3  FTA A   1       4.179  13.479  11.493  1.00  0.00     0.031 A 
BRANCH  16  19
ATOM     19  N8  FTA A   1       1.526  15.905  12.300  1.00  0.00    -0.356 N 
ATOM     20  H1  FTA A   1       1.277  16.689  11.681  1.00  0.00     0.166 HD
BRANCH  19  21
ATOM     21  C24 FTA A   1       0.534  15.459  13.225  1.00  0.00     0.032 A 
ATOM     22  C26 FTA A   1       0.596  15.780  14.560  1.00  0.00     0.029 A 
ATOM     23  C28 FTA A   1      -0.294  15.178  15.428  1.00  0.00     0.002 A 
ATOM     24  C30 FTA A   1      -1.265  14.289  14.999  1.00  0.00     0.000 A 
ATOM     25  C29 FTA A   1      -1.362  13.990  13.666  1.00  0.00     0.002 A 
ATOM     26  C27 FTA A   1      -0.459  14.596  12.785  1.00  0.00     0.029 A 
ENDBRANCH  19  21
ENDBRANCH  16  19
ENDBRANCH  11  13
ENDBRANCH   1  11
TORSDOF 5
ENDMDL
MODEL 5
REMARK VINA RESULT:    -5.959      1.522      2.157
REMARK INTER + INTRA:          -8.657
REMARK INTER:                  -7.706
REMARK INTRA:                  -0.951
REMARK UNBOUND:                -0.956
REMARK  5 active torsions:
REMARK  status: ('A' for Active; 'I' for Inactive)
REMARK    1  A    between atoms: N8_1  and  C24_2 
REMARK    2  A    between atoms: N8_1  and  C7_8 
REMARK    3  A    between atoms: C2_13  and  N1_14 
REMARK    4  A    between atoms: N1_14  and  C17_15 
REMARK    5  A    between atoms: C14_16  and  C13_19 
ROOT
ATOM      1  C17 FTA A   1       6.705  13.673   9.896  1.00  0.00     0.142 C 
ATOM      2  C14 FTA A   1       6.222  12.870   8.927  1.00  0.00     0.158 C 
ATOM      3  C18 FTA A   1       5.616  13.440   7.744  1.00  0.00     0.069 C 
ATOM      4  N21 FTA A   1       5.103  14.037   6.874  1.00  0.00    -0.197 NA
ENDROOT
BRANCH   2   5
ATOM      5  C13 FTA A   1       6.333  11.401   9.078  1.00  0.00     0.197 A 
ATOM      6  N15 FTA A   1       7.386  10.713   9.678  1.00  0.00    -0.093 NA
ATOM      7  N19 FTA A   1       7.115   9.355   9.567  1.00  0.00    -0.231 N 
ATOM      8  N20 FTA A   1       5.909   9.184   8.903  1.00  0.00    -0.017 NA
ATOM      9  H15 FTA A   1       7.714   8.595   9.920  1.00  0.00     0.200 HD
ATOM     10  N16 FTA A   1       5.417  10.452   8.609  1.00  0.00    -0.090 NA
ENDBRANCH   2   5
BRANCH   1  11
ATOM     11  N1  FTA A   1       6.296  13.481  11.165  1.00  0.00    -0.389 N 
ATOM     12  H11 FTA A   1       6.935  12.981  11.800  1.00  0.00     0.159 HD
BRANCH  11  13
ATOM     13  C2  FTA A   1       5.051  13.917  11.696  1.00  0.00     0.028 A 
ATOM     14  C4  FTA A   1       3.840  13.357  11.298  1.00  0.00     0.031 A 
ATOM     15  C6  FTA A   1       2.644  13.981  11.680  1.00  0.00     0.031 A 
ATOM     16  C7  FTA A   1       2.629  15.145  12.444  1.00  0.00     0.032 A 
ATOM     17  C5  FTA A   1       3.840  15.675  12.851  1.00  0.00     0.031 A 
ATOM     18  C3  FTA A   1       5.036  15.079  12.472  1.00  0.00     0.031 A 
BRANCH  16  19
ATOM     19  N8  FTA A   1       1.451  15.905  12.664  1.00  0.00    -0.356 N 
ATOM     20  H1  FTA A   1       1.435  16.868  12.298  1.00  0.00     0.166 HD
BRANCH  19  21
ATOM     21  C24 FTA A   1       0.287  15.445  13.350  1.00  0.00     0.032 A 
ATOM     22  C26 FTA A   1       0.207  15.459  14.723  1.00  0.00     0.029 A 
ATOM     23  C28 FTA A   1      -0.871  14.844  15.330  1.00  0.00     0.002 A 
ATOM     24  C30 FTA A   1      -1.887  14.242  14.607  1.00  0.00     0.000 A 
ATOM     25  C29 FTA A   1      -1.838  14.255  13.238  1.00  0.00     0.002 A 
ATOM     26  C27 FTA A   1      -0.746  14.875  12.621  1.00  0.00     0.029 A 
ENDBRANCH  19  21
ENDBRANCH  16  19
ENDBRANCH  11  13
ENDBRANCH   1  11
TORSDOF 5
ENDMDL
MODEL 6
REMARK VINA RESULT:    -5.828      4.321      5.612
REMARK INTER + INTRA:          -8.488
REMARK INTER:                  -7.629
REMARK INTRA:                  -0.859
REMARK UNBOUND:                -0.956
REMARK  5 active torsions:
REMARK  status: ('A' for Active; 'I' for Inactive)
REMARK    1  A    between atoms: N8_1  and  C24_2 
REMARK    2  A    between atoms: N8_1  and  C7_8 
REMARK    3  A    between atoms: C2_13  and  N1_14 
REMARK    4  A    between atoms: N1_14  and  C17_15 
REMARK    5  A    between atoms: C14_16  and  C13_19 
ROOT
ATOM      1  C17 FTA A   1       9.024  12.200  10.662  1.00  0.00     0.142 C 
ATOM      2  C14 FTA A   1       8.813  11.171   9.818  1.00  0.00     0.158 C 
ATOM      3  C18 FTA A   1       9.927  10.376   9.348  1.00  0.00     0.069 C 
ATOM      4  N21 FTA A   1      10.923   9.859   9.008  1.00  0.00    -0.197 NA
ENDROOT
BRANCH   2   5
ATOM      5  C13 FTA A   1       7.432  10.853   9.388  1.00  0.00     0.197 A 
ATOM      6  N15 FTA A   1       6.336  11.712   9.441  1.00  0.00    -0.093 NA
ATOM      7  N19 FTA A   1       5.230  11.005   8.988  1.00  0.00    -0.231 N 
ATOM      8  N20 FTA A   1       5.618   9.715   8.656  1.00  0.00    -0.017 NA
ATOM      9  H15 FTA A   1       4.273  11.379   8.911  1.00  0.00     0.200 HD
ATOM     10  N16 FTA A   1       6.986   9.622   8.893  1.00  0.00    -0.090 NA
ENDBRANCH   2   5
BRANCH   1  11
ATOM     11  N1  FTA A   1       8.533  13.414  10.346  1.00  0.00    -0.389 N 
ATOM     12  H11 FTA A   1       8.646  13.734   9.373  1.00  0.00     0.159 HD
BRANCH  11  13
ATOM     13  C2  FTA A   1       7.869  14.286  11.251  1.00  0.00     0.028 A 
ATOM     14  C4  FTA A   1       8.154  15.648  11.311  1.00  0.00     0.031 A 
ATOM     15  C6  FTA A   1       7.639  16.405  12.372  1.00  0.00     0.031 A 
ATOM     16  C7  FTA A   1       6.853  15.837  13.373  1.00  0.00     0.032 A 
ATOM     17  C5  FTA A   1       6.559  14.488  13.285  1.00  0.00     0.031 A 
ATOM     18  C3  FTA A   1       7.071  13.718  12.248  1.00  0.00     0.031 A 
BRANCH  16  19
ATOM     19  N8  FTA A   1       6.498  16.530  14.558  1.00  0.00    -0.356 N 
ATOM     20  H1  FTA A   1       5.528  16.867  14.636  1.00  0.00     0.166 HD
BRANCH  19  21
ATOM     21  C24 FTA A   1       7.375  16.799  15.652  1.00  0.00     0.032 A 
ATOM     22  C26 FTA A   1       8.665  17.231  15.453  1.00  0.00     0.029 A 
ATOM     23  C28 FTA A   1       9.514  17.307  16.540  1.00  0.00     0.002 A 
ATOM     24  C30 FTA A   1       9.105  16.994  17.826  1.00  0.00     0.000 A 
ATOM     25  C29 FTA A   1       7.811  16.599  18.043  1.00  0.00     0.002 A 
ATOM     26  C27 FTA A   1       6.951  16.518  16.943  1.00  0.00     0.029 A 
ENDBRANCH  19  21
ENDBRANCH  16  19
ENDBRANCH  11  13
ENDBRANCH   1  11
TORSDOF 5
ENDMDL
MODEL 7
REMARK VINA RESULT:    -5.728      6.592     10.350
REMARK INTER + INTRA:          -8.358
REMARK INTER:                  -7.278
REMARK INTRA:                  -1.081
REMARK UNBOUND:                -0.956
REMARK  5 active torsions:
REMARK  status: ('A' for Active; 'I' for Inactive)
REMARK    1  A    between atoms: N8_1  and  C24_2 
REMARK    2  A    between atoms: N8_1  and  C7_8 
REMARK    3  A    between atoms: C2_13  and  N1_14 
REMARK    4  A    between atoms: N1_14  and  C17_15 
REMARK    5  A    between atoms: C14_16  and  C13_19 
ROOT
ATOM      1  C17 FTA A   1       1.117  18.700  16.932  1.00  0.00     0.142 C 
ATOM      2  C14 FTA A   1      -0.063  18.258  16.453  1.00  0.00     0.158 C 
ATOM      3  C18 FTA A   1      -1.213  19.135  16.427  1.00  0.00     0.069 C 
ATOM      4  N21 FTA A   1      -2.067  19.933  16.521  1.00  0.00    -0.197 NA
ENDROOT
BRANCH   2   5
ATOM      5  C13 FTA A   1      -0.166  16.872  15.940  1.00  0.00     0.197 A 
ATOM      6  N15 FTA A   1       0.894  16.061  15.542  1.00  0.00    -0.093 NA
ATOM      7  N19 FTA A   1       0.357  14.865  15.086  1.00  0.00    -0.231 N 
ATOM      8  N20 FTA A   1      -1.025  14.917  15.191  1.00  0.00    -0.017 NA
ATOM      9  H15 FTA A   1       0.899  14.065  14.728  1.00  0.00     0.200 HD
ATOM     10  N16 FTA A   1      -1.351  16.157  15.730  1.00  0.00    -0.090 NA
ENDBRANCH   2   5
BRANCH   1  11
ATOM     11  N1  FTA A   1       1.738  17.988  17.893  1.00  0.00    -0.389 N 
ATOM     12  H11 FTA A   1       1.154  17.585  18.640  1.00  0.00     0.159 HD
BRANCH  11  13
ATOM     13  C2  FTA A   1       3.138  17.750  17.954  1.00  0.00     0.028 A 
ATOM     14  C4  FTA A   1       4.006  18.171  16.949  1.00  0.00     0.031 A 
ATOM     15  C6  FTA A   1       5.328  17.707  16.955  1.00  0.00     0.031 A 
ATOM     16  C7  FTA A   1       5.803  16.837  17.932  1.00  0.00     0.032 A 
ATOM     17  C5  FTA A   1       4.936  16.449  18.938  1.00  0.00     0.031 A 
ATOM     18  C3  FTA A   1       3.617  16.886  18.942  1.00  0.00     0.031 A 
BRANCH  16  19
ATOM     19  N8  FTA A   1       7.064  16.194  17.843  1.00  0.00    -0.356 N 
ATOM     20  H1  FTA A   1       7.065  15.175  17.688  1.00  0.00     0.166 HD
BRANCH  19  21
ATOM     21  C24 FTA A   1       8.332  16.841  17.952  1.00  0.00     0.032 A 
ATOM     22  C26 FTA A   1       8.664  17.596  19.052  1.00  0.00     0.029 A 
ATOM     23  C28 FTA A   1       9.831  18.335  19.020  1.00  0.00     0.002 A 
ATOM     24  C30 FTA A   1      10.692  18.318  17.936  1.00  0.00     0.000 A 
ATOM     25  C29 FTA A   1      10.392  17.541  16.850  1.00  0.00     0.002 A 
ATOM     26  C27 FTA A   1       9.208  16.794  16.877  1.00  0.00     0.029 A 
ENDBRANCH  19  21
ENDBRANCH  16  19
ENDBRANCH  11  13
ENDBRANCH   1  11
TORSDOF 5
ENDMDL
MODEL 8
REMARK VINA RESULT:    -5.644      4.251      5.769
REMARK INTER + INTRA:          -8.250
REMARK INTER:                  -7.223
REMARK INTRA:                  -1.027
REMARK UNBOUND:                -0.956
REMARK  5 active torsions:
REMARK  status: ('A' for Active; 'I' for Inactive)
REMARK    1  A    between atoms: N8_1  and  C24_2 
REMARK    2  A    between atoms: N8_1  and  C7_8 
REMARK    3  A    between atoms: C2_13  and  N1_14 
REMARK    4  A    between atoms: N1_14  and  C17_15 
REMARK    5  A    between atoms: C14_16  and  C13_19 
ROOT
ATOM      1  C17 FTA A   1       7.766  13.381   9.133  1.00  0.00     0.142 C 
ATOM      2  C14 FTA A   1       6.747  12.682   8.593  1.00  0.00     0.158 C 
ATOM      3  C18 FTA A   1       5.803  13.336   7.713  1.00  0.00     0.069 C 
ATOM      4  N21 FTA A   1       5.087  14.005   7.069  1.00  0.00    -0.197 NA
ENDROOT
BRANCH   2   5
ATOM      5  C13 FTA A   1       6.613  11.239   8.896  1.00  0.00     0.197 A 
ATOM      6  N15 FTA A   1       7.509  10.467   9.633  1.00  0.00    -0.093 NA
ATOM      7  N19 FTA A   1       7.030   9.163   9.638  1.00  0.00    -0.231 N 
ATOM      8  N20 FTA A   1       5.850   9.108   8.911  1.00  0.00    -0.017 NA
ATOM      9  H15 FTA A   1       7.481   8.363  10.106  1.00  0.00     0.200 HD
ATOM     10  N16 FTA A   1       5.584  10.397   8.459  1.00  0.00    -0.090 NA
ENDBRANCH   2   5
BRANCH   1  11
ATOM     11  N1  FTA A   1       7.943  13.348  10.467  1.00  0.00    -0.389 N 
ATOM     12  H11 FTA A   1       8.529  12.592  10.851  1.00  0.00     0.159 HD
BRANCH  11  13
ATOM     13  C2  FTA A   1       7.385  14.277  11.387  1.00  0.00     0.028 A 
ATOM     14  C4  FTA A   1       7.632  15.645  11.301  1.00  0.00     0.031 A 
ATOM     15  C6  FTA A   1       7.246  16.474  12.363  1.00  0.00     0.031 A 
ATOM     16  C7  FTA A   1       6.625  15.973  13.504  1.00  0.00     0.032 A 
ATOM     17  C5  FTA A   1       6.364  14.616  13.564  1.00  0.00     0.031 A 
ATOM     18  C3  FTA A   1       6.751  13.775  12.528  1.00  0.00     0.031 A 
BRANCH  16  19
ATOM     19  N8  FTA A   1       6.417  16.752  14.671  1.00  0.00    -0.356 N 
ATOM     20  H1  FTA A   1       5.507  17.226  14.767  1.00  0.00     0.166 HD
BRANCH  19  21
ATOM     21  C24 FTA A   1       7.364  16.934  15.724  1.00  0.00     0.032 A 
ATOM     22  C26 FTA A   1       8.661  17.313  15.468  1.00  0.00     0.029 A 
ATOM     23  C28 FTA A   1       9.570  17.304  16.509  1.00  0.00     0.002 A 
ATOM     24  C30 FTA A   1       9.217  16.958  17.802  1.00  0.00     0.000 A 
ATOM     25  C29 FTA A   1       7.919  16.616  18.077  1.00  0.00     0.002 A 
ATOM     26  C27 FTA A   1       6.997  16.621  17.024  1.00  0.00     0.029 A 
ENDBRANCH  19  21
ENDBRANCH  16  19
ENDBRANCH  11  13
ENDBRANCH   1  11
TORSDOF 5
ENDMDL
MODEL 9
REMARK VINA RESULT:    -5.512      4.509      8.461
REMARK INTER + INTRA:          -8.080
REMARK INTER:                  -7.123
REMARK INTRA:                  -0.956
REMARK UNBOUND:                -0.956
REMARK  5 active torsions:
REMARK  status: ('A' for Active; 'I' for Inactive)
REMARK    1  A    between atoms: N8_1  and  C24_2 
REMARK    2  A    between atoms: N8_1  and  C7_8 
REMARK    3  A    between atoms: C2_13  and  N1_14 
REMARK    4  A    between atoms: N1_14  and  C17_15 
REMARK    5  A    between atoms: C14_16  and  C13_19 
ROOT
ATOM      1  C17 FTA A   1       6.303  18.163  16.248  1.00  0.00     0.142 C 
ATOM      2  C14 FTA A   1       6.426  17.422  17.367  1.00  0.00     0.158 C 
ATOM      3  C18 FTA A   1       7.718  16.894  17.752  1.00  0.00     0.069 C 
ATOM      4  N21 FTA A   1       8.807  16.487  17.907  1.00  0.00    -0.197 NA
ENDROOT
BRANCH   2   5
ATOM      5  C13 FTA A   1       5.233  17.166  18.206  1.00  0.00     0.197 A 
ATOM      6  N15 FTA A   1       5.111  16.181  19.184  1.00  0.00    -0.093 NA
ATOM      7  N19 FTA A   1       3.822  16.257  19.695  1.00  0.00    -0.231 N 
ATOM      8  N20 FTA A   1       3.135  17.273  19.048  1.00  0.00    -0.017 NA
ATOM      9  H15 FTA A   1       3.437  15.653  20.436  1.00  0.00     0.200 HD
ATOM     10  N16 FTA A   1       4.012  17.846  18.132  1.00  0.00    -0.090 NA
ENDBRANCH   2   5
BRANCH   1  11
ATOM     11  N1  FTA A   1       5.376  17.814  15.335  1.00  0.00    -0.389 N 
ATOM     12  H11 FTA A   1       4.454  18.269  15.395  1.00  0.00     0.159 HD
BRANCH  11  13
ATOM     13  C2  FTA A   1       5.574  16.867  14.293  1.00  0.00     0.028 A 
ATOM     14  C4  FTA A   1       4.564  16.532  13.395  1.00  0.00     0.031 A 
ATOM     15  C6  FTA A   1       4.748  15.433  12.545  1.00  0.00     0.031 A 
ATOM     16  C7  FTA A   1       5.908  14.662  12.571  1.00  0.00     0.032 A 
ATOM     17  C5  FTA A   1       6.912  15.024  13.452  1.00  0.00     0.031 A 
ATOM     18  C3  FTA A   1       6.744  16.102  14.312  1.00  0.00     0.031 A 
BRANCH  16  19
ATOM     19  N8  FTA A   1       6.030  13.432  11.876  1.00  0.00    -0.356 N 
ATOM     20  H1  FTA A   1       5.210  12.809  11.870  1.00  0.00     0.166 HD
BRANCH  19  21
ATOM     21  C24 FTA A   1       7.197  12.986  11.184  1.00  0.00     0.032 A 
ATOM     22  C26 FTA A   1       7.539  13.488   9.951  1.00  0.00     0.029 A 
ATOM     23  C28 FTA A   1       8.578  12.895   9.259  1.00  0.00     0.002 A 
ATOM     24  C30 FTA A   1       9.305  11.835   9.776  1.00  0.00     0.000 A 
ATOM     25  C29 FTA A   1       8.998  11.351  11.019  1.00  0.00     0.002 A 
ATOM     26  C27 FTA A   1       7.944  11.948  11.721  1.00  0.00     0.029 A 
ENDBRANCH  19  21
ENDBRANCH  16  19
ENDBRANCH  11  13
ENDBRANCH   1  11
TORSDOF 5
ENDMDL
