MODEL 1
REMARK VINA RESULT:    -7.953      0.000      0.000
REMARK INTER + INTRA:         -11.230
REMARK INTER:                 -10.119
REMARK INTRA:                  -1.110
REMARK UNBOUND:                -0.952
REMARK  5 active torsions:
REMARK  status: ('A' for Active; 'I' for Inactive)
REMARK    1  A    between atoms: N8_1  and  C24_2 
REMARK    2  A    between atoms: N8_1  and  C7_8 
REMARK    3  A    between atoms: C2_13  and  N1_14 
REMARK    4  A    between atoms: N1_14  and  C17_15 
REMARK    5  A    between atoms: C14_16  and  C13_19 
ROOT
ATOM      1  C17 FTA A   1       5.274  16.136  19.585  1.00  0.00     0.142 C 
ATOM      2  C14 FTA A   1       4.661  17.221  20.100  1.00  0.00     0.158 C 
ATOM      3  C18 FTA A   1       5.194  17.863  21.283  1.00  0.00     0.069 C 
ATOM      4  N21 FTA A   1       5.701  18.242  22.270  1.00  0.00    -0.197 NA
ENDROOT
BRANCH   2   5
ATOM      5  C13 FTA A   1       3.450  17.757  19.438  1.00  0.00     0.197 A 
ATOM      6  N15 FTA A   1       3.204  17.779  18.067  1.00  0.00    -0.093 NA
ATOM      7  N19 FTA A   1       1.981  18.406  17.872  1.00  0.00    -0.231 N 
ATOM      8  N20 FTA A   1       1.459  18.779  19.103  1.00  0.00    -0.017 NA
ATOM      9  H15 FTA A   1       1.531  18.569  16.959  1.00  0.00     0.200 HD
ATOM     10  N16 FTA A   1       2.364  18.368  20.076  1.00  0.00    -0.090 NA
ENDBRANCH   2   5
BRANCH   1  11
ATOM     11  N1  FTA A   1       4.549  15.023  19.362  1.00  0.00    -0.389 N 
ATOM     12  H11 FTA A   1       4.435  14.716  18.385  1.00  0.00     0.159 HD
BRANCH  11  13
ATOM     13  C2  FTA A   1       3.929  14.239  20.373  1.00  0.00     0.028 A 
ATOM     14  C4  FTA A   1       4.635  13.752  21.471  1.00  0.00     0.031 A 
ATOM     15  C6  FTA A   1       4.027  12.801  22.302  1.00  0.00     0.031 A 
ATOM     16  C7  FTA A   1       2.740  12.325  22.065  1.00  0.00     0.032 A 
ATOM     17  C5  FTA A   1       2.043  12.838  20.985  1.00  0.00     0.031 A 
ATOM     18  C3  FTA A   1       2.632  13.771  20.141  1.00  0.00     0.031 A 
BRANCH  16  19
ATOM     19  N8  FTA A   1       2.188  11.220  22.762  1.00  0.00    -0.356 N 
ATOM     20  H1  FTA A   1       1.824  11.394  23.710  1.00  0.00     0.166 HD
BRANCH  19  21
ATOM     21  C24 FTA A   1       2.095   9.888  22.258  1.00  0.00     0.032 A 
ATOM     22  C26 FTA A   1       0.913   9.382  21.772  1.00  0.00     0.029 A 
ATOM     23  C28 FTA A   1       0.846   8.037  21.461  1.00  0.00     0.002 A 
ATOM     24  C30 FTA A   1       1.933   7.189  21.591  1.00  0.00     0.000 A 
ATOM     25  C29 FTA A   1       3.127   7.689  22.038  1.00  0.00     0.002 A 
ATOM     26  C27 FTA A   1       3.197   9.050  22.357  1.00  0.00     0.029 A 
ENDBRANCH  19  21
ENDBRANCH  16  19
ENDBRANCH  11  13
ENDBRANCH   1  11
TORSDOF 5
ENDMDL
MODEL 2
REMARK VINA RESULT:    -7.632      1.920      3.308
REMARK INTER + INTRA:         -10.815
REMARK INTER:                  -9.823
REMARK INTRA:                  -0.993
REMARK UNBOUND:                -0.952
REMARK  5 active torsions:
REMARK  status: ('A' for Active; 'I' for Inactive)
REMARK    1  A    between atoms: N8_1  and  C24_2 
REMARK    2  A    between atoms: N8_1  and  C7_8 
REMARK    3  A    between atoms: C2_13  and  N1_14 
REMARK    4  A    between atoms: N1_14  and  C17_15 
REMARK    5  A    between atoms: C14_16  and  C13_19 
ROOT
ATOM      1  C17 FTA A   1       4.563  14.982  20.694  1.00  0.00     0.142 C 
ATOM      2  C14 FTA A   1       3.364  15.235  20.132  1.00  0.00     0.158 C 
ATOM      3  C18 FTA A   1       3.186  16.399  19.291  1.00  0.00     0.069 C 
ATOM      4  N21 FTA A   1       3.174  17.402  18.684  1.00  0.00    -0.197 NA
ENDROOT
BRANCH   2   5
ATOM      5  C13 FTA A   1       2.237  14.305  20.371  1.00  0.00     0.197 A 
ATOM      6  N15 FTA A   1       2.048  13.068  19.758  1.00  0.00    -0.093 NA
ATOM      7  N19 FTA A   1       0.850  12.547  20.230  1.00  0.00    -0.231 N 
ATOM      8  N20 FTA A   1       0.286  13.442  21.127  1.00  0.00    -0.017 NA
ATOM      9  H15 FTA A   1       0.444  11.640  19.957  1.00  0.00     0.200 HD
ATOM     10  N16 FTA A   1       1.150  14.528  21.224  1.00  0.00    -0.090 NA
ENDBRANCH   2   5
BRANCH   1  11
ATOM     11  N1  FTA A   1       4.630  14.782  22.024  1.00  0.00    -0.389 N 
ATOM     12  H11 FTA A   1       4.908  15.581  22.612  1.00  0.00     0.159 HD
BRANCH  11  13
ATOM     13  C2  FTA A   1       4.344  13.552  22.679  1.00  0.00     0.028 A 
ATOM     14  C4  FTA A   1       4.801  12.330  22.192  1.00  0.00     0.031 A 
ATOM     15  C6  FTA A   1       4.296  11.146  22.747  1.00  0.00     0.031 A 
ATOM     16  C7  FTA A   1       3.351  11.152  23.769  1.00  0.00     0.032 A 
ATOM     17  C5  FTA A   1       2.926  12.374  24.259  1.00  0.00     0.031 A 
ATOM     18  C3  FTA A   1       3.404  13.559  23.713  1.00  0.00     0.031 A 
BRANCH  16  19
ATOM     19  N8  FTA A   1       2.675   9.981  24.199  1.00  0.00    -0.356 N 
ATOM     20  H1  FTA A   1       2.599   9.826  25.215  1.00  0.00     0.166 HD
BRANCH  19  21
ATOM     21  C24 FTA A   1       2.092   9.001  23.341  1.00  0.00     0.032 A 
ATOM     22  C26 FTA A   1       2.721   7.807  23.079  1.00  0.00     0.029 A 
ATOM     23  C28 FTA A   1       2.191   6.978  22.109  1.00  0.00     0.002 A 
ATOM     24  C30 FTA A   1       1.034   7.291  21.416  1.00  0.00     0.000 A 
ATOM     25  C29 FTA A   1       0.377   8.459  21.695  1.00  0.00     0.002 A 
ATOM     26  C27 FTA A   1       0.914   9.303  22.674  1.00  0.00     0.029 A 
ENDBRANCH  19  21
ENDBRANCH  16  19
ENDBRANCH  11  13
ENDBRANCH   1  11
TORSDOF 5
ENDMDL
MODEL 3
REMARK VINA RESULT:    -7.616      1.931      3.119
REMARK INTER + INTRA:         -10.795
REMARK INTER:                  -9.864
REMARK INTRA:                  -0.930
REMARK UNBOUND:                -0.952
REMARK  5 active torsions:
REMARK  status: ('A' for Active; 'I' for Inactive)
REMARK    1  A    between atoms: N8_1  and  C24_2 
REMARK    2  A    between atoms: N8_1  and  C7_8 
REMARK    3  A    between atoms: C2_13  and  N1_14 
REMARK    4  A    between atoms: N1_14  and  C17_15 
REMARK    5  A    between atoms: C14_16  and  C13_19 
ROOT
ATOM      1  C17 FTA A   1       4.497  16.244  19.265  1.00  0.00     0.142 C 
ATOM      2  C14 FTA A   1       4.649  16.615  17.978  1.00  0.00     0.158 C 
ATOM      3  C18 FTA A   1       3.559  17.252  17.270  1.00  0.00     0.069 C 
ATOM      4  N21 FTA A   1       2.579  17.701  16.810  1.00  0.00    -0.197 NA
ENDROOT
BRANCH   2   5
ATOM      5  C13 FTA A   1       5.945  16.380  17.301  1.00  0.00     0.197 A 
ATOM      6  N15 FTA A   1       6.121  15.929  15.995  1.00  0.00    -0.093 NA
ATOM      7  N19 FTA A   1       7.487  15.802  15.777  1.00  0.00    -0.231 N 
ATOM      8  N20 FTA A   1       8.167  16.165  16.930  1.00  0.00    -0.017 NA
ATOM      9  H15 FTA A   1       7.925  15.488  14.899  1.00  0.00     0.200 HD
ATOM     10  N16 FTA A   1       7.214  16.534  17.873  1.00  0.00    -0.090 NA
ENDBRANCH   2   5
BRANCH   1  11
ATOM     11  N1  FTA A   1       4.779  14.974  19.615  1.00  0.00    -0.389 N 
ATOM     12  H11 FTA A   1       5.594  14.528  19.168  1.00  0.00     0.159 HD
BRANCH  11  13
ATOM     13  C2  FTA A   1       4.041  14.203  20.553  1.00  0.00     0.028 A 
ATOM     14  C4  FTA A   1       4.606  13.735  21.736  1.00  0.00     0.031 A 
ATOM     15  C6  FTA A   1       3.902  12.795  22.501  1.00  0.00     0.031 A 
ATOM     16  C7  FTA A   1       2.655  12.312  22.115  1.00  0.00     0.032 A 
ATOM     17  C5  FTA A   1       2.095  12.806  20.950  1.00  0.00     0.031 A 
ATOM     18  C3  FTA A   1       2.783  13.728  20.171  1.00  0.00     0.031 A 
BRANCH  16  19
ATOM     19  N8  FTA A   1       2.022  11.215  22.755  1.00  0.00    -0.356 N 
ATOM     20  H1  FTA A   1       1.513  11.409  23.630  1.00  0.00     0.166 HD
BRANCH  19  21
ATOM     21  C24 FTA A   1       2.032   9.867  22.287  1.00  0.00     0.032 A 
ATOM     22  C26 FTA A   1       0.930   9.303  21.688  1.00  0.00     0.029 A 
ATOM     23  C28 FTA A   1       0.944   7.949  21.415  1.00  0.00     0.002 A 
ATOM     24  C30 FTA A   1       2.038   7.146  21.694  1.00  0.00     0.000 A 
ATOM     25  C29 FTA A   1       3.156   7.703  22.255  1.00  0.00     0.002 A 
ATOM     26  C27 FTA A   1       3.143   9.074  22.536  1.00  0.00     0.029 A 
ENDBRANCH  19  21
ENDBRANCH  16  19
ENDBRANCH  11  13
ENDBRANCH   1  11
TORSDOF 5
ENDMDL
MODEL 4
REMARK VINA RESULT:    -7.607      0.838      1.655
REMARK INTER + INTRA:         -10.783
REMARK INTER:                  -9.762
REMARK INTRA:                  -1.020
REMARK UNBOUND:                -0.952
REMARK  5 active torsions:
REMARK  status: ('A' for Active; 'I' for Inactive)
REMARK    1  A    between atoms: N8_1  and  C24_2 
REMARK    2  A    between atoms: N8_1  and  C7_8 
REMARK    3  A    between atoms: C2_13  and  N1_14 
REMARK    4  A    between atoms: N1_14  and  C17_15 
REMARK    5  A    between atoms: C14_16  and  C13_19 
ROOT
ATOM      1  C17 FTA A   1       4.611  16.075  19.630  1.00  0.00     0.142 C 
ATOM      2  C14 FTA A   1       4.583  17.209  20.358  1.00  0.00     0.158 C 
ATOM      3  C18 FTA A   1       5.551  17.420  21.413  1.00  0.00     0.069 C 
ATOM      4  N21 FTA A   1       6.354  17.429  22.266  1.00  0.00    -0.197 NA
ENDROOT
BRANCH   2   5
ATOM      5  C13 FTA A   1       3.564  18.242  20.058  1.00  0.00     0.197 A 
ATOM      6  N15 FTA A   1       2.528  18.131  19.134  1.00  0.00    -0.093 NA
ATOM      7  N19 FTA A   1       1.838  19.336  19.134  1.00  0.00    -0.231 N 
ATOM      8  N20 FTA A   1       2.430  20.200  20.043  1.00  0.00    -0.017 NA
ATOM      9  H15 FTA A   1       1.016  19.554  18.551  1.00  0.00     0.200 HD
ATOM     10  N16 FTA A   1       3.495  19.520  20.625  1.00  0.00    -0.090 NA
ENDBRANCH   2   5
BRANCH   1  11
ATOM     11  N1  FTA A   1       3.484  15.346  19.516  1.00  0.00    -0.389 N 
ATOM     12  H11 FTA A   1       2.731  15.723  18.923  1.00  0.00     0.159 HD
BRANCH  11  13
ATOM     13  C2  FTA A   1       3.255  14.096  20.153  1.00  0.00     0.028 A 
ATOM     14  C4  FTA A   1       1.997  13.497  20.180  1.00  0.00     0.031 A 
ATOM     15  C6  FTA A   1       1.789  12.391  21.014  1.00  0.00     0.031 A 
ATOM     16  C7  FTA A   1       2.798  11.870  21.820  1.00  0.00     0.032 A 
ATOM     17  C5  FTA A   1       4.049  12.460  21.762  1.00  0.00     0.031 A 
ATOM     18  C3  FTA A   1       4.272  13.567  20.952  1.00  0.00     0.031 A 
BRANCH  16  19
ATOM     19  N8  FTA A   1       2.559  10.893  22.819  1.00  0.00    -0.356 N 
ATOM     20  H1  FTA A   1       2.609  11.199  23.801  1.00  0.00     0.166 HD
BRANCH  19  21
ATOM     21  C24 FTA A   1       2.254   9.519  22.576  1.00  0.00     0.032 A 
ATOM     22  C26 FTA A   1       3.241   8.595  22.328  1.00  0.00     0.029 A 
ATOM     23  C28 FTA A   1       2.872   7.324  21.930  1.00  0.00     0.002 A 
ATOM     24  C30 FTA A   1       1.548   6.939  21.804  1.00  0.00     0.000 A 
ATOM     25  C29 FTA A   1       0.556   7.839  22.086  1.00  0.00     0.002 A 
ATOM     26  C27 FTA A   1       0.925   9.129  22.484  1.00  0.00     0.029 A 
ENDBRANCH  19  21
ENDBRANCH  16  19
ENDBRANCH  11  13
ENDBRANCH   1  11
TORSDOF 5
ENDMDL
MODEL 5
REMARK VINA RESULT:    -7.577      1.731      2.649
REMARK INTER + INTRA:         -10.743
REMARK INTER:                  -9.723
REMARK INTRA:                  -1.020
REMARK UNBOUND:                -0.952
REMARK  5 active torsions:
REMARK  status: ('A' for Active; 'I' for Inactive)
REMARK    1  A    between atoms: N8_1  and  C24_2 
REMARK    2  A    between atoms: N8_1  and  C7_8 
REMARK    3  A    between atoms: C2_13  and  N1_14 
REMARK    4  A    between atoms: N1_14  and  C17_15 
REMARK    5  A    between atoms: C14_16  and  C13_19 
ROOT
ATOM      1  C17 FTA A   1       4.541  15.999  19.229  1.00  0.00     0.142 C 
ATOM      2  C14 FTA A   1       5.358  17.061  19.082  1.00  0.00     0.158 C 
ATOM      3  C18 FTA A   1       5.717  17.525  17.759  1.00  0.00     0.069 C 
ATOM      4  N21 FTA A   1       5.967  17.751  16.636  1.00  0.00    -0.197 NA
ENDROOT
BRANCH   2   5
ATOM      5  C13 FTA A   1       5.869  17.758  20.284  1.00  0.00     0.197 A 
ATOM      6  N15 FTA A   1       7.109  18.382  20.408  1.00  0.00    -0.093 NA
ATOM      7  N19 FTA A   1       7.205  18.866  21.706  1.00  0.00    -0.231 N 
ATOM      8  N20 FTA A   1       6.044  18.552  22.396  1.00  0.00    -0.017 NA
ATOM      9  H15 FTA A   1       8.011  19.378  22.094  1.00  0.00     0.200 HD
ATOM     10  N16 FTA A   1       5.210  17.874  21.513  1.00  0.00    -0.090 NA
ENDBRANCH   2   5
BRANCH   1  11
ATOM     11  N1  FTA A   1       4.938  14.975  20.009  1.00  0.00    -0.389 N 
ATOM     12  H11 FTA A   1       5.941  14.736  20.007  1.00  0.00     0.159 HD
BRANCH  11  13
ATOM     13  C2  FTA A   1       4.080  14.201  20.837  1.00  0.00     0.028 A 
ATOM     14  C4  FTA A   1       4.478  13.737  22.088  1.00  0.00     0.031 A 
ATOM     15  C6  FTA A   1       3.680  12.793  22.748  1.00  0.00     0.031 A 
ATOM     16  C7  FTA A   1       2.502  12.301  22.193  1.00  0.00     0.032 A 
ATOM     17  C5  FTA A   1       2.107  12.791  20.960  1.00  0.00     0.031 A 
ATOM     18  C3  FTA A   1       2.892  13.717  20.283  1.00  0.00     0.031 A 
BRANCH  16  19
ATOM     19  N8  FTA A   1       1.792  11.202  22.740  1.00  0.00    -0.356 N 
ATOM     20  H1  FTA A   1       1.164  11.393  23.533  1.00  0.00     0.166 HD
BRANCH  19  21
ATOM     21  C24 FTA A   1       1.878   9.852  22.282  1.00  0.00     0.032 A 
ATOM     22  C26 FTA A   1       0.786   9.195  21.767  1.00  0.00     0.029 A 
ATOM     23  C28 FTA A   1       0.890   7.843  21.504  1.00  0.00     0.002 A 
ATOM     24  C30 FTA A   1       2.061   7.134  21.709  1.00  0.00     0.000 A 
ATOM     25  C29 FTA A   1       3.168   7.785  22.185  1.00  0.00     0.002 A 
ATOM     26  C27 FTA A   1       3.064   9.154  22.456  1.00  0.00     0.029 A 
ENDBRANCH  19  21
ENDBRANCH  16  19
ENDBRANCH  11  13
ENDBRANCH   1  11
TORSDOF 5
ENDMDL
MODEL 6
REMARK VINA RESULT:    -7.484      1.282      2.547
REMARK INTER + INTRA:         -10.623
REMARK INTER:                  -9.626
REMARK INTRA:                  -0.997
REMARK UNBOUND:                -0.952
REMARK  5 active torsions:
REMARK  status: ('A' for Active; 'I' for Inactive)
REMARK    1  A    between atoms: N8_1  and  C24_2 
REMARK    2  A    between atoms: N8_1  and  C7_8 
REMARK    3  A    between atoms: C2_13  and  N1_14 
REMARK    4  A    between atoms: N1_14  and  C17_15 
REMARK    5  A    between atoms: C14_16  and  C13_19 
ROOT
ATOM      1  C17 FTA A   1       4.618  16.260  20.385  1.00  0.00     0.142 C 
ATOM      2  C14 FTA A   1       3.973  16.980  19.446  1.00  0.00     0.158 C 
ATOM      3  C18 FTA A   1       2.747  17.674  19.776  1.00  0.00     0.069 C 
ATOM      4  N21 FTA A   1       1.741  18.132  20.168  1.00  0.00    -0.197 NA
ENDROOT
BRANCH   2   5
ATOM      5  C13 FTA A   1       4.538  17.068  18.080  1.00  0.00     0.197 A 
ATOM      6  N15 FTA A   1       4.115  17.926  17.068  1.00  0.00    -0.093 NA
ATOM      7  N19 FTA A   1       4.877  17.651  15.940  1.00  0.00    -0.231 N 
ATOM      8  N20 FTA A   1       5.770  16.630  16.232  1.00  0.00    -0.017 NA
ATOM      9  H15 FTA A   1       4.793  18.129  15.031  1.00  0.00     0.200 HD
ATOM     10  N16 FTA A   1       5.569  16.274  17.561  1.00  0.00    -0.090 NA
ENDBRANCH   2   5
BRANCH   1  11
ATOM     11  N1  FTA A   1       4.934  14.978  20.120  1.00  0.00    -0.389 N 
ATOM     12  H11 FTA A   1       5.766  14.803  19.538  1.00  0.00     0.159 HD
BRANCH  11  13
ATOM     13  C2  FTA A   1       4.207  13.847  20.583  1.00  0.00     0.028 A 
ATOM     14  C4  FTA A   1       2.848  13.685  20.328  1.00  0.00     0.031 A 
ATOM     15  C6  FTA A   1       2.145  12.677  21.002  1.00  0.00     0.031 A 
ATOM     16  C7  FTA A   1       2.762  11.832  21.920  1.00  0.00     0.032 A 
ATOM     17  C5  FTA A   1       4.119  11.989  22.143  1.00  0.00     0.031 A 
ATOM     18  C3  FTA A   1       4.830  12.992  21.496  1.00  0.00     0.031 A 
BRANCH  16  19
ATOM     19  N8  FTA A   1       2.038  10.950  22.762  1.00  0.00    -0.356 N 
ATOM     20  H1  FTA A   1       1.598  11.353  23.602  1.00  0.00     0.166 HD
BRANCH  19  21
ATOM     21  C24 FTA A   1       1.868   9.549  22.542  1.00  0.00     0.032 A 
ATOM     22  C26 FTA A   1       2.760   8.629  23.039  1.00  0.00     0.029 A 
ATOM     23  C28 FTA A   1       2.637   7.309  22.647  1.00  0.00     0.002 A 
ATOM     24  C30 FTA A   1       1.631   6.877  21.800  1.00  0.00     0.000 A 
ATOM     25  C29 FTA A   1       0.713   7.778  21.329  1.00  0.00     0.002 A 
ATOM     26  C27 FTA A   1       0.838   9.115  21.721  1.00  0.00     0.029 A 
ENDBRANCH  19  21
ENDBRANCH  16  19
ENDBRANCH  11  13
ENDBRANCH   1  11
TORSDOF 5
ENDMDL
MODEL 7
REMARK VINA RESULT:    -7.294      1.616      2.229
REMARK INTER + INTRA:         -10.379
REMARK INTER:                  -9.315
REMARK INTRA:                  -1.064
REMARK UNBOUND:                -0.952
REMARK  5 active torsions:
REMARK  status: ('A' for Active; 'I' for Inactive)
REMARK    1  A    between atoms: N8_1  and  C24_2 
REMARK    2  A    between atoms: N8_1  and  C7_8 
REMARK    3  A    between atoms: C2_13  and  N1_14 
REMARK    4  A    between atoms: N1_14  and  C17_15 
REMARK    5  A    between atoms: C14_16  and  C13_19 
ROOT
ATOM      1  C17 FTA A   1       5.755  16.991  19.656  1.00  0.00     0.142 C 
ATOM      2  C14 FTA A   1       4.910  17.905  20.174  1.00  0.00     0.158 C 
ATOM      3  C18 FTA A   1       5.272  18.635  21.370  1.00  0.00     0.069 C 
ATOM      4  N21 FTA A   1       5.670  19.104  22.368  1.00  0.00    -0.197 NA
ENDROOT
BRANCH   2   5
ATOM      5  C13 FTA A   1       3.618  18.167  19.500  1.00  0.00     0.197 A 
ATOM      6  N15 FTA A   1       3.317  17.897  18.166  1.00  0.00    -0.093 NA
ATOM      7  N19 FTA A   1       2.020  18.336  17.934  1.00  0.00    -0.231 N 
ATOM      8  N20 FTA A   1       1.507  18.879  19.103  1.00  0.00    -0.017 NA
ATOM      9  H15 FTA A   1       1.518  18.269  17.037  1.00  0.00     0.200 HD
ATOM     10  N16 FTA A   1       2.492  18.765  20.078  1.00  0.00    -0.090 NA
ENDBRANCH   2   5
BRANCH   1  11
ATOM     11  N1  FTA A   1       5.299  15.748  19.412  1.00  0.00    -0.389 N 
ATOM     12  H11 FTA A   1       5.561  15.313  18.515  1.00  0.00     0.159 HD
BRANCH  11  13
ATOM     13  C2  FTA A   1       4.486  14.989  20.297  1.00  0.00     0.028 A 
ATOM     14  C4  FTA A   1       4.937  14.577  21.548  1.00  0.00     0.031 A 
ATOM     15  C6  FTA A   1       4.180  13.644  22.271  1.00  0.00     0.031 A 
ATOM     16  C7  FTA A   1       2.991  13.115  21.777  1.00  0.00     0.032 A 
ATOM     17  C5  FTA A   1       2.543  13.554  20.543  1.00  0.00     0.031 A 
ATOM     18  C3  FTA A   1       3.286  14.467  19.806  1.00  0.00     0.031 A 
BRANCH  16  19
ATOM     19  N8  FTA A   1       2.321  12.024  22.388  1.00  0.00    -0.356 N 
ATOM     20  H1  FTA A   1       2.896  11.358  22.925  1.00  0.00     0.166 HD
BRANCH  19  21
ATOM     21  C24 FTA A   1       0.918  11.773  22.321  1.00  0.00     0.032 A 
ATOM     22  C26 FTA A   1       0.003  12.649  22.856  1.00  0.00     0.029 A 
ATOM     23  C28 FTA A   1      -1.324  12.267  22.912  1.00  0.00     0.002 A 
ATOM     24  C30 FTA A   1      -1.769  11.051  22.422  1.00  0.00     0.000 A 
ATOM     25  C29 FTA A   1      -0.874  10.186  21.852  1.00  0.00     0.002 A 
ATOM     26  C27 FTA A   1       0.472  10.568  21.797  1.00  0.00     0.029 A 
ENDBRANCH  19  21
ENDBRANCH  16  19
ENDBRANCH  11  13
ENDBRANCH   1  11
TORSDOF 5
ENDMDL
MODEL 8
REMARK VINA RESULT:    -7.228      1.481      2.105
REMARK INTER + INTRA:         -10.292
REMARK INTER:                  -9.197
REMARK INTRA:                  -1.095
REMARK UNBOUND:                -0.952
REMARK  5 active torsions:
REMARK  status: ('A' for Active; 'I' for Inactive)
REMARK    1  A    between atoms: N8_1  and  C24_2 
REMARK    2  A    between atoms: N8_1  and  C7_8 
REMARK    3  A    between atoms: C2_13  and  N1_14 
REMARK    4  A    between atoms: N1_14  and  C17_15 
REMARK    5  A    between atoms: C14_16  and  C13_19 
ROOT
ATOM      1  C17 FTA A   1       4.567  14.877  20.003  1.00  0.00     0.142 C 
ATOM      2  C14 FTA A   1       4.641  16.157  19.586  1.00  0.00     0.158 C 
ATOM      3  C18 FTA A   1       5.730  16.581  18.733  1.00  0.00     0.069 C 
ATOM      4  N21 FTA A   1       6.693  16.794  18.097  1.00  0.00    -0.197 NA
ENDROOT
BRANCH   2   5
ATOM      5  C13 FTA A   1       3.592  17.118  19.994  1.00  0.00     0.197 A 
ATOM      6  N15 FTA A   1       3.795  18.439  20.389  1.00  0.00    -0.093 NA
ATOM      7  N19 FTA A   1       2.558  18.968  20.730  1.00  0.00    -0.231 N 
ATOM      8  N20 FTA A   1       1.583  17.996  20.557  1.00  0.00    -0.017 NA
ATOM      9  H15 FTA A   1       2.389  19.930  21.060  1.00  0.00     0.200 HD
ATOM     10  N16 FTA A   1       2.221  16.851  20.091  1.00  0.00    -0.090 NA
ENDBRANCH   2   5
BRANCH   1  11
ATOM     11  N1  FTA A   1       4.444  14.629  21.322  1.00  0.00    -0.389 N 
ATOM     12  H11 FTA A   1       5.131  15.064  21.954  1.00  0.00     0.159 HD
BRANCH  11  13
ATOM     13  C2  FTA A   1       3.438  13.812  21.907  1.00  0.00     0.028 A 
ATOM     14  C4  FTA A   1       3.482  13.425  23.244  1.00  0.00     0.031 A 
ATOM     15  C6  FTA A   1       2.595  12.440  23.696  1.00  0.00     0.031 A 
ATOM     16  C7  FTA A   1       1.670  11.832  22.851  1.00  0.00     0.032 A 
ATOM     17  C5  FTA A   1       1.622  12.245  21.531  1.00  0.00     0.031 A 
ATOM     18  C3  FTA A   1       2.502  13.211  21.060  1.00  0.00     0.031 A 
BRANCH  16  19
ATOM     19  N8  FTA A   1       0.912  10.695  23.230  1.00  0.00    -0.356 N 
ATOM     20  H1  FTA A   1       0.046  10.861  23.763  1.00  0.00     0.166 HD
BRANCH  19  21
ATOM     21  C24 FTA A   1       1.249   9.340  22.934  1.00  0.00     0.032 A 
ATOM     22  C26 FTA A   1       2.421   8.775  23.380  1.00  0.00     0.029 A 
ATOM     23  C28 FTA A   1       2.769   7.521  22.917  1.00  0.00     0.002 A 
ATOM     24  C30 FTA A   1       1.968   6.801  22.046  1.00  0.00     0.000 A 
ATOM     25  C29 FTA A   1       0.780   7.337  21.625  1.00  0.00     0.002 A 
ATOM     26  C27 FTA A   1       0.426   8.609  22.089  1.00  0.00     0.029 A 
ENDBRANCH  19  21
ENDBRANCH  16  19
ENDBRANCH  11  13
ENDBRANCH   1  11
TORSDOF 5
ENDMDL
MODEL 9
REMARK VINA RESULT:    -7.228      2.555      8.374
REMARK INTER + INTRA:         -10.292
REMARK INTER:                  -9.340
REMARK INTRA:                  -0.952
REMARK UNBOUND:                -0.952
REMARK  5 active torsions:
REMARK  status: ('A' for Active; 'I' for Inactive)
REMARK    1  A    between atoms: N8_1  and  C24_2 
REMARK    2  A    between atoms: N8_1  and  C7_8 
REMARK    3  A    between atoms: C2_13  and  N1_14 
REMARK    4  A    between atoms: N1_14  and  C17_15 
REMARK    5  A    between atoms: C14_16  and  C13_19 
ROOT
ATOM      1  C17 FTA A   1       0.205  11.007  23.231  1.00  0.00     0.142 C 
ATOM      2  C14 FTA A   1       1.025  10.140  23.858  1.00  0.00     0.158 C 
ATOM      3  C18 FTA A   1       1.565  10.463  25.161  1.00  0.00     0.069 C 
ATOM      4  N21 FTA A   1       1.970  10.881  26.179  1.00  0.00    -0.197 NA
ENDROOT
BRANCH   2   5
ATOM      5  C13 FTA A   1       1.356   8.851  23.209  1.00  0.00     0.197 A 
ATOM      6  N15 FTA A   1       2.592   8.209  23.239  1.00  0.00    -0.093 NA
ATOM      7  N19 FTA A   1       2.483   7.057  22.470  1.00  0.00    -0.231 N 
ATOM      8  N20 FTA A   1       1.196   6.972  21.958  1.00  0.00    -0.017 NA
ATOM      9  H15 FTA A   1       3.237   6.375  22.305  1.00  0.00     0.200 HD
ATOM     10  N16 FTA A   1       0.492   8.078  22.424  1.00  0.00    -0.090 NA
ENDBRANCH   2   5
BRANCH   1  11
ATOM     11  N1  FTA A   1       0.495  11.383  21.970  1.00  0.00    -0.389 N 
ATOM     12  H11 FTA A   1      -0.048  10.953  21.208  1.00  0.00     0.159 HD
BRANCH  11  13
ATOM     13  C2  FTA A   1       1.495  12.328  21.612  1.00  0.00     0.028 A 
ATOM     14  C4  FTA A   1       1.183  13.543  21.007  1.00  0.00     0.031 A 
ATOM     15  C6  FTA A   1       2.219  14.321  20.472  1.00  0.00     0.031 A 
ATOM     16  C7  FTA A   1       3.551  13.918  20.524  1.00  0.00     0.032 A 
ATOM     17  C5  FTA A   1       3.846  12.721  21.151  1.00  0.00     0.031 A 
ATOM     18  C3  FTA A   1       2.833  11.928  21.675  1.00  0.00     0.031 A 
BRANCH  16  19
ATOM     19  N8  FTA A   1       4.584  14.580  19.813  1.00  0.00    -0.356 N 
ATOM     20  H1  FTA A   1       5.021  14.070  19.031  1.00  0.00     0.166 HD
BRANCH  19  21
ATOM     21  C24 FTA A   1       5.067  15.895  20.090  1.00  0.00     0.032 A 
ATOM     22  C26 FTA A   1       5.373  16.777  19.081  1.00  0.00     0.029 A 
ATOM     23  C28 FTA A   1       5.998  17.966  19.408  1.00  0.00     0.002 A 
ATOM     24  C30 FTA A   1       6.297  18.313  20.714  1.00  0.00     0.000 A 
ATOM     25  C29 FTA A   1       5.963  17.459  21.731  1.00  0.00     0.002 A 
ATOM     26  C27 FTA A   1       5.334  16.253  21.403  1.00  0.00     0.029 A 
ENDBRANCH  19  21
ENDBRANCH  16  19
ENDBRANCH  11  13
ENDBRANCH   1  11
TORSDOF 5
ENDMDL
