MODEL 1
REMARK VINA RESULT:    -9.045      0.000      0.000
REMARK INTER + INTRA:         -12.694
REMARK INTER:                 -11.567
REMARK INTRA:                  -1.127
REMARK UNBOUND:                -1.534
REMARK  4 active torsions:
REMARK  status: ('A' for Active; 'I' for Inactive)
REMARK    1  A    between atoms: N_10  and  C_14 
REMARK    2  A    between atoms: C_17  and  C_18 
REMARK       I    between atoms: C_18  and  N_20 
REMARK    3  A    between atoms: C_22  and  N_23 
REMARK    4  A    between atoms: N_23  and  C_24 
ROOT
HETATM    1  C   UNL     1      -1.886  14.446  22.881  0.00  0.00     0.041 C 
HETATM    2  C   UNL     1      -3.250  14.659  23.090  0.00  0.00     0.031 C 
HETATM    3  C   UNL     1      -3.963  13.887  24.011  0.00  0.00     0.022 C 
HETATM    4  C   UNL     1      -3.321  12.878  24.735  0.00  0.00     0.058 C 
HETATM    5  C   UNL     1      -1.303  13.316  23.489  0.00  0.00     0.060 C 
HETATM    6  C   UNL     1      -1.966  12.573  24.478  0.00  0.00     0.046 C 
ENDROOT
BRANCH   1   7
HETATM    7  N   UNL     1      -1.051  15.381  22.161  0.00  0.00    -0.324 N 
HETATM    8  C   UNL     1       0.339  15.516  22.152  0.00  0.00     0.031 C 
HETATM    9  C   UNL     1       1.350  14.669  22.867  0.00  0.00     0.067 C 
HETATM   10  C   UNL     1       0.684  16.567  21.309  0.00  0.00     0.040 C 
HETATM   11  C   UNL     1       2.797  14.888  22.336  0.00  0.00    -0.036 C 
HETATM   12  C   UNL     1       3.072  16.390  22.104  0.00  0.00     0.093 C 
HETATM   13  C   UNL     1       3.026  14.100  21.027  0.00  0.00     0.015 C 
HETATM   14  C   UNL     1       3.786  14.353  23.389  0.00  0.00     0.015 C 
HETATM   15  C   UNL     1       2.062  17.018  21.155  0.00  0.00     0.162 C 
HETATM   16  O   UNL     1       2.391  17.898  20.361  0.00  0.00    -0.292 OA
HETATM   17  C   UNL     1      -0.483  16.987  20.640  0.00  0.00    -0.030 C 
HETATM   18  C   UNL     1      -1.520  16.277  21.205  0.00  0.00     0.105 C 
HETATM   19  C   UNL     1      -0.573  17.966  19.527  0.00  0.00     0.050 C 
ENDBRANCH   1   7
BRANCH   6  20
HETATM   20  N   UNL     1      -1.341  11.545  25.176  0.00  0.00    -0.384 N 
HETATM   21  H   UNL     1      -0.525  11.920  25.679  0.00  0.00     0.160 HD
BRANCH  20  22
HETATM   22  C   UNL     1      -1.273  10.137  24.808  0.00  0.00     0.082 C 
HETATM   23  C   UNL     1      -1.213   9.280  26.081  0.00  0.00     0.032 C 
HETATM   24  C   UNL     1       0.047   9.538  26.907  0.00  0.00     0.080 C 
HETATM   25  C   UNL     1       1.295   9.492  26.051  0.00  0.00     0.127 C 
HETATM   26  C   UNL     1       1.262  10.239  24.740  0.00  0.00     0.080 C 
HETATM   27  O   UNL     1       2.328   8.960  26.455  0.00  0.00    -0.298 OA
HETATM   28  C   UNL     1      -0.007   9.884  23.974  0.00  0.00     0.032 C 
ENDBRANCH  20  22
ENDBRANCH   6  20
BRANCH   4  29
HETATM   29  C   UNL     1      -4.060  12.183  25.831  0.00  0.00     0.251 C 
HETATM   30  O   UNL     1      -3.735  12.293  27.005  0.00  0.00    -0.268 OA
HETATM   31  N   UNL     1      -5.138  11.410  25.479  0.00  0.00    -0.366 N 
HETATM   32  H   UNL     1      -5.339  11.133  24.529  0.00  0.00     0.159 HD
HETATM   33  H   UNL     1      -5.587  10.893  26.225  0.00  0.00     0.159 HD
ENDBRANCH   4  29
TORSDOF 4
ENDMDL
MODEL 2
REMARK VINA RESULT:    -8.527      2.165      4.928
REMARK INTER + INTRA:         -12.054
REMARK INTER:                 -10.830
REMARK INTRA:                  -1.224
REMARK UNBOUND:                -1.534
REMARK  4 active torsions:
REMARK  status: ('A' for Active; 'I' for Inactive)
REMARK    1  A    between atoms: N_10  and  C_14 
REMARK    2  A    between atoms: C_17  and  C_18 
REMARK       I    between atoms: C_18  and  N_20 
REMARK    3  A    between atoms: C_22  and  N_23 
REMARK    4  A    between atoms: N_23  and  C_24 
ROOT
HETATM    1  C   UNL     1      -0.457  13.112  23.309  0.00  0.00     0.041 C 
HETATM    2  C   UNL     1       0.486  12.119  23.039  0.00  0.00     0.031 C 
HETATM    3  C   UNL     1       0.424  10.878  23.679  0.00  0.00     0.022 C 
HETATM    4  C   UNL     1      -0.583  10.615  24.613  0.00  0.00     0.058 C 
HETATM    5  C   UNL     1      -1.352  12.888  24.375  0.00  0.00     0.060 C 
HETATM    6  C   UNL     1      -1.494  11.630  24.980  0.00  0.00     0.046 C 
ENDROOT
BRANCH   1   7
HETATM    7  N   UNL     1      -0.606  14.292  22.486  0.00  0.00    -0.324 N 
HETATM    8  C   UNL     1      -1.644  14.656  21.625  0.00  0.00     0.031 C 
HETATM    9  C   UNL     1      -2.926  13.921  21.366  0.00  0.00     0.067 C 
HETATM   10  C   UNL     1      -1.336  15.881  21.043  0.00  0.00     0.040 C 
HETATM   11  C   UNL     1      -3.983  14.800  20.635  0.00  0.00    -0.036 C 
HETATM   12  C   UNL     1      -3.323  15.624  19.508  0.00  0.00     0.093 C 
HETATM   13  C   UNL     1      -4.695  15.741  21.632  0.00  0.00     0.015 C 
HETATM   14  C   UNL     1      -5.046  13.869  20.021  0.00  0.00     0.015 C 
HETATM   15  C   UNL     1      -2.183  16.490  20.023  0.00  0.00     0.162 C 
HETATM   16  O   UNL     1      -1.962  17.604  19.551  0.00  0.00    -0.292 OA
HETATM   17  C   UNL     1      -0.180  16.383  21.674  0.00  0.00    -0.030 C 
HETATM   18  C   UNL     1       0.258  15.382  22.513  0.00  0.00     0.105 C 
HETATM   19  C   UNL     1       0.421  17.729  21.498  0.00  0.00     0.050 C 
ENDBRANCH   1   7
BRANCH   6  20
HETATM   20  N   UNL     1      -2.472  11.373  25.935  0.00  0.00    -0.384 N 
HETATM   21  H   UNL     1      -2.543  10.358  26.088  0.00  0.00     0.160 HD
BRANCH  20  22
HETATM   22  C   UNL     1      -3.681  12.144  26.195  0.00  0.00     0.082 C 
HETATM   23  C   UNL     1      -4.646  11.306  27.047  0.00  0.00     0.032 C 
HETATM   24  C   UNL     1      -5.124  10.045  26.328  0.00  0.00     0.080 C 
HETATM   25  C   UNL     1      -5.614  10.351  24.929  0.00  0.00     0.127 C 
HETATM   26  C   UNL     1      -4.752  11.249  24.075  0.00  0.00     0.080 C 
HETATM   27  O   UNL     1      -6.616   9.805  24.468  0.00  0.00    -0.298 OA
HETATM   28  C   UNL     1      -4.363  12.495  24.863  0.00  0.00     0.032 C 
ENDBRANCH  20  22
ENDBRANCH   6  20
BRANCH   4  29
HETATM   29  C   UNL     1      -0.730   9.231  25.156  0.00  0.00     0.251 C 
HETATM   30  O   UNL     1      -0.956   9.019  26.340  0.00  0.00    -0.268 OA
HETATM   31  N   UNL     1      -0.612   8.186  24.275  0.00  0.00    -0.366 N 
HETATM   32  H   UNL     1      -0.246   8.286  23.339  0.00  0.00     0.159 HD
HETATM   33  H   UNL     1      -0.648   7.254  24.669  0.00  0.00     0.159 HD
ENDBRANCH   4  29
TORSDOF 4
ENDMDL
MODEL 3
REMARK VINA RESULT:    -8.309      1.790      3.898
REMARK INTER + INTRA:         -11.786
REMARK INTER:                 -11.041
REMARK INTRA:                  -0.744
REMARK UNBOUND:                -1.534
REMARK  4 active torsions:
REMARK  status: ('A' for Active; 'I' for Inactive)
REMARK    1  A    between atoms: N_10  and  C_14 
REMARK    2  A    between atoms: C_17  and  C_18 
REMARK       I    between atoms: C_18  and  N_20 
REMARK    3  A    between atoms: C_22  and  N_23 
REMARK    4  A    between atoms: N_23  and  C_24 
ROOT
HETATM    1  C   UNL     1       0.232  12.787  24.189  0.00  0.00     0.041 C 
HETATM    2  C   UNL     1       1.163  11.747  24.175  0.00  0.00     0.031 C 
HETATM    3  C   UNL     1       0.871  10.517  24.771  0.00  0.00     0.022 C 
HETATM    4  C   UNL     1      -0.359  10.311  25.402  0.00  0.00     0.058 C 
HETATM    5  C   UNL     1      -0.924  12.617  24.977  0.00  0.00     0.060 C 
HETATM    6  C   UNL     1      -1.284  11.372  25.518  0.00  0.00     0.046 C 
ENDROOT
BRANCH   1   7
HETATM    7  N   UNL     1       0.365  13.965  23.360  0.00  0.00    -0.324 N 
HETATM    8  C   UNL     1       1.516  14.609  22.900  0.00  0.00     0.031 C 
HETATM    9  C   UNL     1       2.945  14.203  23.112  0.00  0.00     0.067 C 
HETATM   10  C   UNL     1       1.141  15.711  22.139  0.00  0.00     0.040 C 
HETATM   11  C   UNL     1       3.926  14.947  22.158  0.00  0.00    -0.036 C 
HETATM   12  C   UNL     1       3.555  16.442  22.050  0.00  0.00     0.093 C 
HETATM   13  C   UNL     1       3.924  14.297  20.757  0.00  0.00     0.015 C 
HETATM   14  C   UNL     1       5.349  14.823  22.735  0.00  0.00     0.015 C 
HETATM   15  C   UNL     1       2.119  16.644  21.591  0.00  0.00     0.162 C 
HETATM   16  O   UNL     1       1.808  17.581  20.857  0.00  0.00    -0.292 OA
HETATM   17  C   UNL     1      -0.256  15.662  21.966  0.00  0.00    -0.030 C 
HETATM   18  C   UNL     1      -0.699  14.618  22.748  0.00  0.00     0.105 C 
HETATM   19  C   UNL     1      -1.080  16.534  21.089  0.00  0.00     0.050 C 
ENDBRANCH   1   7
BRANCH   6  20
HETATM   20  N   UNL     1      -2.492  11.172  26.177  0.00  0.00    -0.384 N 
HETATM   21  H   UNL     1      -2.712  10.167  26.190  0.00  0.00     0.160 HD
BRANCH  20  22
HETATM   22  C   UNL     1      -3.633  12.076  26.230  0.00  0.00     0.082 C 
HETATM   23  C   UNL     1      -4.814  11.368  26.910  0.00  0.00     0.032 C 
HETATM   24  C   UNL     1      -5.304  10.152  26.123  0.00  0.00     0.080 C 
HETATM   25  C   UNL     1      -5.518  10.482  24.662  0.00  0.00     0.127 C 
HETATM   26  C   UNL     1      -4.431  11.262  23.962  0.00  0.00     0.080 C 
HETATM   27  O   UNL     1      -6.484  10.040  24.041  0.00  0.00    -0.298 OA
HETATM   28  C   UNL     1      -4.042  12.473  24.802  0.00  0.00     0.032 C 
ENDBRANCH  20  22
ENDBRANCH   6  20
BRANCH   4  29
HETATM   29  C   UNL     1      -0.713   8.941  25.881  0.00  0.00     0.251 C 
HETATM   30  O   UNL     1      -1.058   8.726  27.035  0.00  0.00    -0.268 OA
HETATM   31  N   UNL     1      -0.649   7.914  24.974  0.00  0.00    -0.366 N 
HETATM   32  H   UNL     1      -0.199   7.994  24.073  0.00  0.00     0.159 HD
HETATM   33  H   UNL     1      -0.827   6.983  25.330  0.00  0.00     0.159 HD
ENDBRANCH   4  29
TORSDOF 4
ENDMDL
MODEL 4
REMARK VINA RESULT:    -8.139      2.008      3.541
REMARK INTER + INTRA:         -11.577
REMARK INTER:                 -10.225
REMARK INTRA:                  -1.352
REMARK UNBOUND:                -1.534
REMARK  4 active torsions:
REMARK  status: ('A' for Active; 'I' for Inactive)
REMARK    1  A    between atoms: N_10  and  C_14 
REMARK    2  A    between atoms: C_17  and  C_18 
REMARK       I    between atoms: C_18  and  N_20 
REMARK    3  A    between atoms: C_22  and  N_23 
REMARK    4  A    between atoms: N_23  and  C_24 
ROOT
HETATM    1  C   UNL     1       0.048  12.974  24.107  0.00  0.00     0.041 C 
HETATM    2  C   UNL     1      -0.975  13.615  24.807  0.00  0.00     0.031 C 
HETATM    3  C   UNL     1      -1.780  12.910  25.706  0.00  0.00     0.022 C 
HETATM    4  C   UNL     1      -1.579  11.542  25.911  0.00  0.00     0.058 C 
HETATM    5  C   UNL     1       0.119  11.569  24.198  0.00  0.00     0.060 C 
HETATM    6  C   UNL     1      -0.616  10.843  25.147  0.00  0.00     0.046 C 
ENDROOT
BRANCH   1   7
HETATM    7  N   UNL     1       1.075  13.697  23.389  0.00  0.00    -0.324 N 
HETATM    8  C   UNL     1       0.954  14.698  22.422  0.00  0.00     0.031 C 
HETATM    9  C   UNL     1      -0.305  15.330  21.904  0.00  0.00     0.067 C 
HETATM   10  C   UNL     1       2.225  15.084  22.013  0.00  0.00     0.040 C 
HETATM   11  C   UNL     1      -0.032  16.643  21.113  0.00  0.00    -0.036 C 
HETATM   12  C   UNL     1       1.188  16.477  20.182  0.00  0.00     0.093 C 
HETATM   13  C   UNL     1       0.195  17.827  22.078  0.00  0.00     0.015 C 
HETATM   14  C   UNL     1      -1.275  16.961  20.260  0.00  0.00     0.015 C 
HETATM   15  C   UNL     1       2.436  16.052  20.942  0.00  0.00     0.162 C 
HETATM   16  O   UNL     1       3.551  16.457  20.619  0.00  0.00    -0.292 OA
HETATM   17  C   UNL     1       3.162  14.452  22.855  0.00  0.00    -0.030 C 
HETATM   18  C   UNL     1       2.437  13.591  23.650  0.00  0.00     0.105 C 
HETATM   19  C   UNL     1       4.627  14.692  22.903  0.00  0.00     0.050 C 
ENDBRANCH   1   7
BRANCH   6  20
HETATM   20  N   UNL     1      -0.444   9.476  25.330  0.00  0.00    -0.384 N 
HETATM   21  H   UNL     1      -1.234   9.100  25.872  0.00  0.00     0.160 HD
BRANCH  20  22
HETATM   22  C   UNL     1       0.813   8.748  25.449  0.00  0.00     0.082 C 
HETATM   23  C   UNL     1       0.841   7.608  24.421  0.00  0.00     0.032 C 
HETATM   24  C   UNL     1      -0.248   6.564  24.669  0.00  0.00     0.080 C 
HETATM   25  C   UNL     1      -0.273   6.116  26.115  0.00  0.00     0.127 C 
HETATM   26  C   UNL     1      -0.207   7.191  27.173  0.00  0.00     0.080 C 
HETATM   27  O   UNL     1      -0.451   4.937  26.416  0.00  0.00    -0.298 OA
HETATM   28  C   UNL     1       0.932   8.154  26.861  0.00  0.00     0.032 C 
ENDBRANCH  20  22
ENDBRANCH   6  20
BRANCH   4  29
HETATM   29  C   UNL     1      -2.335  10.847  26.995  0.00  0.00     0.251 C 
HETATM   30  O   UNL     1      -1.771  10.237  27.893  0.00  0.00    -0.268 OA
HETATM   31  N   UNL     1      -3.705  10.919  26.961  0.00  0.00    -0.366 N 
HETATM   32  H   UNL     1      -4.226  11.241  26.158  0.00  0.00     0.159 HD
HETATM   33  H   UNL     1      -4.204  10.388  27.664  0.00  0.00     0.159 HD
ENDBRANCH   4  29
TORSDOF 4
ENDMDL
MODEL 5
REMARK VINA RESULT:    -8.099      2.354      7.731
REMARK INTER + INTRA:         -11.527
REMARK INTER:                 -10.061
REMARK INTRA:                  -1.466
REMARK UNBOUND:                -1.534
REMARK  4 active torsions:
REMARK  status: ('A' for Active; 'I' for Inactive)
REMARK    1  A    between atoms: N_10  and  C_14 
REMARK    2  A    between atoms: C_17  and  C_18 
REMARK       I    between atoms: C_18  and  N_20 
REMARK    3  A    between atoms: C_22  and  N_23 
REMARK    4  A    between atoms: N_23  and  C_24 
ROOT
HETATM    1  C   UNL     1       0.583  12.718  22.969  0.00  0.00     0.041 C 
HETATM    2  C   UNL     1       1.743  13.480  23.124  0.00  0.00     0.031 C 
HETATM    3  C   UNL     1       1.816  14.783  22.624  0.00  0.00     0.022 C 
HETATM    4  C   UNL     1       0.728  15.344  21.949  0.00  0.00     0.058 C 
HETATM    5  C   UNL     1      -0.431  13.237  22.138  0.00  0.00     0.060 C 
HETATM    6  C   UNL     1      -0.423  14.567  21.691  0.00  0.00     0.046 C 
ENDROOT
BRANCH   1   7
HETATM    7  N   UNL     1       0.353  11.490  23.696  0.00  0.00    -0.324 N 
HETATM    8  C   UNL     1      -0.428  11.255  24.831  0.00  0.00     0.031 C 
HETATM    9  C   UNL     1      -1.290  12.234  25.573  0.00  0.00     0.067 C 
HETATM   10  C   UNL     1      -0.333   9.911  25.172  0.00  0.00     0.040 C 
HETATM   11  C   UNL     1      -2.281  11.536  26.551  0.00  0.00    -0.036 C 
HETATM   12  C   UNL     1      -1.581  10.390  27.312  0.00  0.00     0.093 C 
HETATM   13  C   UNL     1      -3.510  10.994  25.790  0.00  0.00     0.015 C 
HETATM   14  C   UNL     1      -2.777  12.584  27.566  0.00  0.00     0.015 C 
HETATM   15  C   UNL     1      -0.964   9.367  26.369  0.00  0.00     0.162 C 
HETATM   16  O   UNL     1      -0.949   8.169  26.646  0.00  0.00    -0.292 OA
HETATM   17  C   UNL     1       0.369   9.251  24.143  0.00  0.00    -0.030 C 
HETATM   18  C   UNL     1       0.803  10.240  23.287  0.00  0.00     0.105 C 
HETATM   19  C   UNL     1       0.569   7.787  23.993  0.00  0.00     0.050 C 
ENDBRANCH   1   7
BRANCH   6  20
HETATM   20  N   UNL     1      -1.490  15.119  20.988  0.00  0.00    -0.384 N 
HETATM   21  H   UNL     1      -1.149  15.507  20.098  0.00  0.00     0.160 HD
BRANCH  20  22
HETATM   22  C   UNL     1      -2.688  15.739  21.538  0.00  0.00     0.082 C 
HETATM   23  C   UNL     1      -3.493  14.689  22.318  0.00  0.00     0.032 C 
HETATM   24  C   UNL     1      -4.003  13.557  21.427  0.00  0.00     0.080 C 
HETATM   25  C   UNL     1      -4.687  14.088  20.185  0.00  0.00     0.127 C 
HETATM   26  C   UNL     1      -3.986  15.190  19.427  0.00  0.00     0.080 C 
HETATM   27  O   UNL     1      -5.714  13.570  19.749  0.00  0.00    -0.298 OA
HETATM   28  C   UNL     1      -3.554  16.287  20.393  0.00  0.00     0.032 C 
ENDBRANCH  20  22
ENDBRANCH   6  20
BRANCH   4  29
HETATM   29  C   UNL     1       0.768  16.789  21.574  0.00  0.00     0.251 C 
HETATM   30  O   UNL     1       0.141  17.638  22.193  0.00  0.00    -0.268 OA
HETATM   31  N   UNL     1       1.547  17.146  20.503  0.00  0.00    -0.366 N 
HETATM   32  H   UNL     1       1.932  16.482  19.848  0.00  0.00     0.159 HD
HETATM   33  H   UNL     1       1.511  18.118  20.221  0.00  0.00     0.159 HD
ENDBRANCH   4  29
TORSDOF 4
ENDMDL
MODEL 6
REMARK VINA RESULT:    -8.079      2.175      7.664
REMARK INTER + INTRA:         -11.503
REMARK INTER:                 -10.063
REMARK INTRA:                  -1.439
REMARK UNBOUND:                -1.534
REMARK  4 active torsions:
REMARK  status: ('A' for Active; 'I' for Inactive)
REMARK    1  A    between atoms: N_10  and  C_14 
REMARK    2  A    between atoms: C_17  and  C_18 
REMARK       I    between atoms: C_18  and  N_20 
REMARK    3  A    between atoms: C_22  and  N_23 
REMARK    4  A    between atoms: N_23  and  C_24 
ROOT
HETATM    1  C   UNL     1      -0.674  10.768  23.948  0.00  0.00     0.041 C 
HETATM    2  C   UNL     1      -2.016  10.461  23.716  0.00  0.00     0.031 C 
HETATM    3  C   UNL     1      -2.843  11.345  23.019  0.00  0.00     0.022 C 
HETATM    4  C   UNL     1      -2.340  12.562  22.548  0.00  0.00     0.058 C 
HETATM    5  C   UNL     1      -0.236  12.067  23.620  0.00  0.00     0.060 C 
HETATM    6  C   UNL     1      -1.014  12.946  22.849  0.00  0.00     0.046 C 
ENDROOT
BRANCH   1   7
HETATM    7  N   UNL     1       0.283   9.787  24.409  0.00  0.00    -0.324 N 
HETATM    8  C   UNL     1       0.463   9.243  25.683  0.00  0.00     0.031 C 
HETATM    9  C   UNL     1      -0.346   9.507  26.919  0.00  0.00     0.067 C 
HETATM   10  C   UNL     1       1.518   8.338  25.641  0.00  0.00     0.040 C 
HETATM   11  C   UNL     1      -0.083   8.460  28.041  0.00  0.00    -0.036 C 
HETATM   12  C   UNL     1       1.425   8.149  28.156  0.00  0.00     0.093 C 
HETATM   13  C   UNL     1      -0.873   7.160  27.773  0.00  0.00     0.015 C 
HETATM   14  C   UNL     1      -0.578   9.047  29.377  0.00  0.00     0.015 C 
HETATM   15  C   UNL     1       2.014   7.668  26.838  0.00  0.00     0.162 C 
HETATM   16  O   UNL     1       2.898   6.813  26.806  0.00  0.00    -0.292 OA
HETATM   17  C   UNL     1       1.895   8.174  24.293  0.00  0.00    -0.030 C 
HETATM   18  C   UNL     1       1.156   9.092  23.579  0.00  0.00     0.105 C 
HETATM   19  C   UNL     1       2.864   7.188  23.749  0.00  0.00     0.050 C 
ENDBRANCH   1   7
BRANCH   6  20
HETATM   20  N   UNL     1      -0.529  14.172  22.408  0.00  0.00    -0.384 N 
HETATM   21  H   UNL     1       0.233  14.017  21.733  0.00  0.00     0.160 HD
BRANCH  20  22
HETATM   22  C   UNL     1      -0.476  15.424  23.152  0.00  0.00     0.082 C 
HETATM   23  C   UNL     1      -0.656  16.601  22.182  0.00  0.00     0.032 C 
HETATM   24  C   UNL     1       0.474  16.698  21.157  0.00  0.00     0.080 C 
HETATM   25  C   UNL     1       1.834  16.621  21.817  0.00  0.00     0.127 C 
HETATM   26  C   UNL     1       2.041  15.540  22.852  0.00  0.00     0.080 C 
HETATM   27  O   UNL     1       2.765  17.336  21.449  0.00  0.00    -0.298 OA
HETATM   28  C   UNL     1       0.888  15.552  23.848  0.00  0.00     0.032 C 
ENDBRANCH  20  22
ENDBRANCH   6  20
BRANCH   4  29
HETATM   29  C   UNL     1      -3.192  13.411  21.664  0.00  0.00     0.251 C 
HETATM   30  O   UNL     1      -3.571  14.525  22.001  0.00  0.00    -0.268 OA
HETATM   31  N   UNL     1      -3.539  12.903  20.437  0.00  0.00    -0.366 N 
HETATM   32  H   UNL     1      -3.418  11.934  20.181  0.00  0.00     0.159 HD
HETATM   33  H   UNL     1      -4.171  13.462  19.877  0.00  0.00     0.159 HD
ENDBRANCH   4  29
TORSDOF 4
ENDMDL
MODEL 7
REMARK VINA RESULT:    -8.057      2.554      8.031
REMARK INTER + INTRA:         -11.475
REMARK INTER:                  -9.992
REMARK INTRA:                  -1.483
REMARK UNBOUND:                -1.534
REMARK  4 active torsions:
REMARK  status: ('A' for Active; 'I' for Inactive)
REMARK    1  A    between atoms: N_10  and  C_14 
REMARK    2  A    between atoms: C_17  and  C_18 
REMARK       I    between atoms: C_18  and  N_20 
REMARK    3  A    between atoms: C_22  and  N_23 
REMARK    4  A    between atoms: N_23  and  C_24 
ROOT
HETATM    1  C   UNL     1      -1.382  10.664  25.221  0.00  0.00     0.041 C 
HETATM    2  C   UNL     1      -2.529  10.605  24.427  0.00  0.00     0.031 C 
HETATM    3  C   UNL     1      -2.673  11.435  23.312  0.00  0.00     0.022 C 
HETATM    4  C   UNL     1      -1.670  12.349  22.978  0.00  0.00     0.058 C 
HETATM    5  C   UNL     1      -0.469  11.707  24.969  0.00  0.00     0.060 C 
HETATM    6  C   UNL     1      -0.541  12.502  23.814  0.00  0.00     0.046 C 
ENDROOT
BRANCH   1   7
HETATM    7  N   UNL     1      -1.060   9.654  26.204  0.00  0.00    -0.324 N 
HETATM    8  C   UNL     1      -0.584   8.352  26.026  0.00  0.00     0.031 C 
HETATM    9  C   UNL     1      -0.228   7.671  24.738  0.00  0.00     0.067 C 
HETATM   10  C   UNL     1      -0.430   7.755  27.272  0.00  0.00     0.040 C 
HETATM   11  C   UNL     1       0.601   6.371  24.958  0.00  0.00    -0.036 C 
HETATM   12  C   UNL     1       0.029   5.551  26.134  0.00  0.00     0.093 C 
HETATM   13  C   UNL     1       2.086   6.707  25.218  0.00  0.00     0.015 C 
HETATM   14  C   UNL     1       0.526   5.526  23.672  0.00  0.00     0.015 C 
HETATM   15  C   UNL     1      -0.033   6.360  27.421  0.00  0.00     0.162 C 
HETATM   16  O   UNL     1       0.176   5.839  28.515  0.00  0.00    -0.292 OA
HETATM   17  C   UNL     1      -0.639   8.744  28.255  0.00  0.00    -0.030 C 
HETATM   18  C   UNL     1      -1.056   9.869  27.578  0.00  0.00     0.105 C 
HETATM   19  C   UNL     1      -0.419   8.611  29.718  0.00  0.00     0.050 C 
ENDBRANCH   1   7
BRANCH   6  20
HETATM   20  N   UNL     1       0.437  13.438  23.496  0.00  0.00    -0.384 N 
HETATM   21  H   UNL     1       0.937  13.136  22.647  0.00  0.00     0.160 HD
BRANCH  20  22
HETATM   22  C   UNL     1       1.192  14.279  24.415  0.00  0.00     0.082 C 
HETATM   23  C   UNL     1       0.865  15.754  24.141  0.00  0.00     0.032 C 
HETATM   24  C   UNL     1       1.295  16.204  22.745  0.00  0.00     0.080 C 
HETATM   25  C   UNL     1       2.723  15.804  22.444  0.00  0.00     0.127 C 
HETATM   26  C   UNL     1       3.131  14.389  22.780  0.00  0.00     0.080 C 
HETATM   27  O   UNL     1       3.489  16.562  21.850  0.00  0.00    -0.298 OA
HETATM   28  C   UNL     1       2.697  14.051  24.202  0.00  0.00     0.032 C 
ENDBRANCH  20  22
ENDBRANCH   6  20
BRANCH   4  29
HETATM   29  C   UNL     1      -1.768  13.103  21.692  0.00  0.00     0.251 C 
HETATM   30  O   UNL     1      -1.551  14.305  21.626  0.00  0.00    -0.268 OA
HETATM   31  N   UNL     1      -2.106  12.396  20.565  0.00  0.00    -0.366 N 
HETATM   32  H   UNL     1      -2.474  11.456  20.587  0.00  0.00     0.159 HD
HETATM   33  H   UNL     1      -2.233  12.932  19.716  0.00  0.00     0.159 HD
ENDBRANCH   4  29
TORSDOF 4
ENDMDL
MODEL 8
REMARK VINA RESULT:    -7.768      2.351      7.746
REMARK INTER + INTRA:         -11.119
REMARK INTER:                  -9.850
REMARK INTRA:                  -1.269
REMARK UNBOUND:                -1.534
REMARK  4 active torsions:
REMARK  status: ('A' for Active; 'I' for Inactive)
REMARK    1  A    between atoms: N_10  and  C_14 
REMARK    2  A    between atoms: C_17  and  C_18 
REMARK       I    between atoms: C_18  and  N_20 
REMARK    3  A    between atoms: C_22  and  N_23 
REMARK    4  A    between atoms: N_23  and  C_24 
ROOT
HETATM    1  C   UNL     1       0.201  12.556  23.780  0.00  0.00     0.041 C 
HETATM    2  C   UNL     1       1.469  13.134  23.852  0.00  0.00     0.031 C 
HETATM    3  C   UNL     1       1.772  14.291  23.129  0.00  0.00     0.022 C 
HETATM    4  C   UNL     1       0.807  14.885  22.310  0.00  0.00     0.058 C 
HETATM    5  C   UNL     1      -0.695  13.068  22.820  0.00  0.00     0.060 C 
HETATM    6  C   UNL     1      -0.454  14.272  22.140  0.00  0.00     0.046 C 
ENDROOT
BRANCH   1   7
HETATM    7  N   UNL     1      -0.248  11.540  24.706  0.00  0.00    -0.324 N 
HETATM    8  C   UNL     1       0.157  10.209  24.839  0.00  0.00     0.031 C 
HETATM    9  C   UNL     1       1.226   9.491  24.068  0.00  0.00     0.067 C 
HETATM   10  C   UNL     1      -0.567   9.619  25.868  0.00  0.00     0.040 C 
HETATM   11  C   UNL     1       1.641   8.146  24.732  0.00  0.00    -0.036 C 
HETATM   12  C   UNL     1       0.399   7.377  25.231  0.00  0.00     0.093 C 
HETATM   13  C   UNL     1       2.617   8.392  25.903  0.00  0.00     0.015 C 
HETATM   14  C   UNL     1       2.372   7.291  23.679  0.00  0.00     0.015 C 
HETATM   15  C   UNL     1      -0.439   8.204  26.195  0.00  0.00     0.162 C 
HETATM   16  O   UNL     1      -1.019   7.684  27.147  0.00  0.00    -0.292 OA
HETATM   17  C   UNL     1      -1.309  10.630  26.511  0.00  0.00    -0.030 C 
HETATM   18  C   UNL     1      -1.124  11.771  25.761  0.00  0.00     0.105 C 
HETATM   19  C   UNL     1      -2.099  10.502  27.763  0.00  0.00     0.050 C 
ENDBRANCH   1   7
BRANCH   6  20
HETATM   20  N   UNL     1      -1.399  14.849  21.297  0.00  0.00    -0.384 N 
HETATM   21  H   UNL     1      -0.954  15.096  20.402  0.00  0.00     0.160 HD
BRANCH  20  22
HETATM   22  C   UNL     1      -2.555  15.649  21.677  0.00  0.00     0.082 C 
HETATM   23  C   UNL     1      -3.540  14.777  22.470  0.00  0.00     0.032 C 
HETATM   24  C   UNL     1      -4.107  13.626  21.640  0.00  0.00     0.080 C 
HETATM   25  C   UNL     1      -4.620  14.103  20.299  0.00  0.00     0.127 C 
HETATM   26  C   UNL     1      -3.734  15.040  19.514  0.00  0.00     0.080 C 
HETATM   27  O   UNL     1      -5.663  13.661  19.818  0.00  0.00    -0.298 OA
HETATM   28  C   UNL     1      -3.255  16.174  20.413  0.00  0.00     0.032 C 
ENDBRANCH  20  22
ENDBRANCH   6  20
BRANCH   4  29
HETATM   29  C   UNL     1       1.098  16.208  21.682  0.00  0.00     0.251 C 
HETATM   30  O   UNL     1       0.883  16.426  20.497  0.00  0.00    -0.268 OA
HETATM   31  N   UNL     1       1.613  17.194  22.485  0.00  0.00    -0.366 N 
HETATM   32  H   UNL     1       1.982  17.023  23.409  0.00  0.00     0.159 HD
HETATM   33  H   UNL     1       1.867  18.063  22.031  0.00  0.00     0.159 HD
ENDBRANCH   4  29
TORSDOF 4
ENDMDL
MODEL 9
REMARK VINA RESULT:    -7.682      2.469      8.095
REMARK INTER + INTRA:         -11.012
REMARK INTER:                  -9.478
REMARK INTRA:                  -1.534
REMARK UNBOUND:                -1.534
REMARK  4 active torsions:
REMARK  status: ('A' for Active; 'I' for Inactive)
REMARK    1  A    between atoms: N_10  and  C_14 
REMARK    2  A    between atoms: C_17  and  C_18 
REMARK       I    between atoms: C_18  and  N_20 
REMARK    3  A    between atoms: C_22  and  N_23 
REMARK    4  A    between atoms: N_23  and  C_24 
ROOT
HETATM    1  C   UNL     1      -1.963  10.451  26.932  0.00  0.00     0.041 C 
HETATM    2  C   UNL     1      -3.348  10.618  26.995  0.00  0.00     0.031 C 
HETATM    3  C   UNL     1      -4.000  11.522  26.152  0.00  0.00     0.022 C 
HETATM    4  C   UNL     1      -3.272  12.284  25.235  0.00  0.00     0.058 C 
HETATM    5  C   UNL     1      -1.235  11.350  26.127  0.00  0.00     0.060 C 
HETATM    6  C   UNL     1      -1.861  12.211  25.212  0.00  0.00     0.046 C 
ENDROOT
BRANCH   1   7
HETATM    7  N   UNL     1      -1.280   9.349  27.571  0.00  0.00    -0.324 N 
HETATM    8  C   UNL     1      -0.712   8.202  27.010  0.00  0.00     0.031 C 
HETATM    9  C   UNL     1      -0.619   7.838  25.557  0.00  0.00     0.067 C 
HETATM   10  C   UNL     1      -0.172   7.423  28.027  0.00  0.00     0.040 C 
HETATM   11  C   UNL     1       0.389   6.681  25.293  0.00  0.00    -0.036 C 
HETATM   12  C   UNL     1       0.242   5.574  26.360  0.00  0.00     0.093 C 
HETATM   13  C   UNL     1       1.839   7.212  25.278  0.00  0.00     0.015 C 
HETATM   14  C   UNL     1       0.089   6.084  23.905  0.00  0.00     0.015 C 
HETATM   15  C   UNL     1       0.415   6.113  27.773  0.00  0.00     0.162 C 
HETATM   16  O   UNL     1       0.960   5.444  28.650  0.00  0.00    -0.292 OA
HETATM   17  C   UNL     1      -0.240   8.165  29.223  0.00  0.00    -0.030 C 
HETATM   18  C   UNL     1      -0.949   9.307  28.921  0.00  0.00     0.105 C 
HETATM   19  C   UNL     1       0.363   7.808  30.533  0.00  0.00     0.050 C 
ENDBRANCH   1   7
BRANCH   6  20
HETATM   20  N   UNL     1      -1.139  12.997  24.321  0.00  0.00    -0.384 N 
HETATM   21  H   UNL     1      -1.084  12.521  23.410  0.00  0.00     0.160 HD
BRANCH  20  22
HETATM   22  C   UNL     1      -0.047  13.912  24.629  0.00  0.00     0.082 C 
HETATM   23  C   UNL     1      -0.510  15.357  24.390  0.00  0.00     0.032 C 
HETATM   24  C   UNL     1      -0.859  15.630  22.927  0.00  0.00     0.080 C 
HETATM   25  C   UNL     1       0.233  15.150  21.994  0.00  0.00     0.127 C 
HETATM   26  C   UNL     1       0.795  13.770  22.239  0.00  0.00     0.080 C 
HETATM   27  O   UNL     1       0.570  15.810  21.012  0.00  0.00    -0.298 OA
HETATM   28  C   UNL     1       1.149  13.611  23.712  0.00  0.00     0.032 C 
ENDBRANCH  20  22
ENDBRANCH   6  20
BRANCH   4  29
HETATM   29  C   UNL     1      -4.004  13.116  24.233  0.00  0.00     0.251 C 
HETATM   30  O   UNL     1      -3.945  14.338  24.235  0.00  0.00    -0.268 OA
HETATM   31  N   UNL     1      -4.750  12.460  23.287  0.00  0.00    -0.366 N 
HETATM   32  H   UNL     1      -4.987  11.480  23.345  0.00  0.00     0.159 HD
HETATM   33  H   UNL     1      -5.293  13.038  22.657  0.00  0.00     0.159 HD
ENDBRANCH   4  29
TORSDOF 4
ENDMDL
