MODEL 1
REMARK VINA RESULT:    -8.227      0.000      0.000
REMARK INTER + INTRA:          -9.665
REMARK INTER:                  -9.112
REMARK INTRA:                  -0.553
REMARK UNBOUND:                -0.236
REMARK  3 active torsions:
REMARK  status: ('A' for Active; 'I' for Inactive)
REMARK    1  A    between atoms: O_2  and  C_3 
REMARK       I    between atoms: N_10  and  C_11 
REMARK    2  A    between atoms: C_11  and  C_13 
REMARK    3  A    between atoms: C_15  and  N_16 
ROOT
HETATM    1  C   UNL     1       8.745  14.440  22.170  0.00  0.00     0.140 A 
HETATM    2  N   UNL     1       9.041  15.288  21.156  0.00  0.00    -0.212 NA
HETATM    3  C   UNL     1      10.293  15.736  21.105  0.00  0.00     0.200 A 
HETATM    4  N   UNL     1      11.260  15.412  21.959  0.00  0.00    -0.218 NA
HETATM    5  C   UNL     1      10.966  14.579  22.961  0.00  0.00     0.073 A 
HETATM    6  C   UNL     1      11.996  14.176  23.802  0.00  0.00     0.033 A 
HETATM    7  C   UNL     1      11.792  13.266  24.844  0.00  0.00     0.009 A 
HETATM    8  C   UNL     1      10.512  12.796  25.104  0.00  0.00    -0.061 A 
HETATM    9  C   UNL     1      10.250  11.705  26.096  0.00  0.00     0.048 C 
HETATM   10  C   UNL     1       9.463  13.249  24.302  0.00  0.00     0.023 A 
HETATM   11  C   UNL     1       9.677  14.079  23.168  0.00  0.00     0.028 A 
ENDROOT
BRANCH   1  12
HETATM   12  C   UNL     1       7.371  13.781  22.120  0.00  0.00     0.274 C 
HETATM   13  N   UNL     1       6.287  14.252  22.848  0.00  0.00    -0.338 N 
HETATM   14  C   UNL     1       5.015  13.539  22.722  0.00  0.00     0.165 A 
HETATM   15  C   UNL     1       6.204  15.366  23.795  0.00  0.00     0.165 A 
HETATM   16  C   UNL     1       4.140  14.183  23.741  0.00  0.00    -0.030 A 
HETATM   17  C   UNL     1       4.828  15.213  24.382  0.00  0.00    -0.032 A 
HETATM   18  C   UNL     1       2.853  13.829  24.114  0.00  0.00     0.046 A 
HETATM   19  C   UNL     1       4.251  15.900  25.430  0.00  0.00     0.012 A 
HETATM   20  C   UNL     1       2.968  15.514  25.857  0.00  0.00     0.037 A 
HETATM   21  C   UNL     1       2.280  14.475  25.209  0.00  0.00     0.068 A 
HETATM   22  O   UNL     1       7.180  12.803  21.392  0.00  0.00    -0.266 OA
BRANCH  21  23
HETATM   23  O   UNL     1       1.034  14.029  25.565  0.00  0.00    -0.356 OA
HETATM   24  C   UNL     1       0.193  13.677  24.470  0.00  0.00     0.210 C 
ENDBRANCH  21  23
ENDBRANCH   1  12
BRANCH   3  25
HETATM   25  N   UNL     1      10.626  16.641  20.119  0.00  0.00    -0.271 NA
HETATM   26  H   UNL     1      11.581  16.945  20.226  0.00  0.00     0.127 HD
HETATM   27  H   UNL     1      10.368  16.259  19.218  0.00  0.00     0.127 HD
ENDBRANCH   3  25
TORSDOF 3
ENDMDL
MODEL 2
REMARK VINA RESULT:    -8.054      2.318      2.877
REMARK INTER + INTRA:          -9.467
REMARK INTER:                  -8.958
REMARK INTRA:                  -0.509
REMARK UNBOUND:                -0.236
REMARK  3 active torsions:
REMARK  status: ('A' for Active; 'I' for Inactive)
REMARK    1  A    between atoms: O_2  and  C_3 
REMARK       I    between atoms: N_10  and  C_11 
REMARK    2  A    between atoms: C_11  and  C_13 
REMARK    3  A    between atoms: C_15  and  N_16 
ROOT
HETATM    1  C   UNL     1       9.799  14.486  22.675  0.00  0.00     0.140 A 
HETATM    2  N   UNL     1      10.091  15.658  22.062  0.00  0.00    -0.212 NA
HETATM    3  C   UNL     1      10.509  15.579  20.801  0.00  0.00     0.200 A 
HETATM    4  N   UNL     1      10.651  14.452  20.109  0.00  0.00    -0.218 NA
HETATM    5  C   UNL     1      10.366  13.296  20.715  0.00  0.00     0.073 A 
HETATM    6  C   UNL     1      10.434  12.128  19.965  0.00  0.00     0.033 A 
HETATM    7  C   UNL     1      10.103  10.881  20.501  0.00  0.00     0.009 A 
HETATM    8  C   UNL     1       9.762  10.779  21.843  0.00  0.00    -0.061 A 
HETATM    9  C   UNL     1       9.245   9.506  22.439  0.00  0.00     0.048 C 
HETATM   10  C   UNL     1       9.756  11.941  22.617  0.00  0.00     0.023 A 
HETATM   11  C   UNL     1       9.974  13.229  22.055  0.00  0.00     0.028 A 
ENDROOT
BRANCH   1  12
HETATM   12  C   UNL     1       9.144  14.587  24.048  0.00  0.00     0.274 C 
HETATM   13  N   UNL     1       7.773  14.726  24.216  0.00  0.00    -0.338 N 
HETATM   14  C   UNL     1       7.254  14.814  25.582  0.00  0.00     0.165 A 
HETATM   15  C   UNL     1       6.711  14.848  23.213  0.00  0.00     0.165 A 
HETATM   16  C   UNL     1       5.809  15.125  25.398  0.00  0.00    -0.030 A 
HETATM   17  C   UNL     1       5.499  15.177  24.040  0.00  0.00    -0.032 A 
HETATM   18  C   UNL     1       4.863  15.410  26.369  0.00  0.00     0.046 A 
HETATM   19  C   UNL     1       4.235  15.538  23.619  0.00  0.00     0.012 A 
HETATM   20  C   UNL     1       3.280  15.885  24.591  0.00  0.00     0.037 A 
HETATM   21  C   UNL     1       3.599  15.833  25.958  0.00  0.00     0.068 A 
HETATM   22  O   UNL     1       9.833  14.520  25.069  0.00  0.00    -0.266 OA
BRANCH  21  23
HETATM   23  O   UNL     1       2.735  16.163  26.970  0.00  0.00    -0.356 OA
HETATM   24  C   UNL     1       1.839  15.123  27.349  0.00  0.00     0.210 C 
ENDBRANCH  21  23
ENDBRANCH   1  12
BRANCH   3  25
HETATM   25  N   UNL     1      10.866  16.743  20.155  0.00  0.00    -0.271 NA
HETATM   26  H   UNL     1      10.317  16.866  19.318  0.00  0.00     0.127 HD
HETATM   27  H   UNL     1      10.859  17.507  20.820  0.00  0.00     0.127 HD
ENDBRANCH   3  25
TORSDOF 3
ENDMDL
MODEL 3
REMARK VINA RESULT:    -7.986      2.500      3.506
REMARK INTER + INTRA:          -9.389
REMARK INTER:                  -8.880
REMARK INTRA:                  -0.509
REMARK UNBOUND:                -0.236
REMARK  3 active torsions:
REMARK  status: ('A' for Active; 'I' for Inactive)
REMARK    1  A    between atoms: O_2  and  C_3 
REMARK       I    between atoms: N_10  and  C_11 
REMARK    2  A    between atoms: C_11  and  C_13 
REMARK    3  A    between atoms: C_15  and  N_16 
ROOT
HETATM    1  C   UNL     1       8.109  13.840  24.811  0.00  0.00     0.140 A 
HETATM    2  N   UNL     1       8.119  14.130  26.134  0.00  0.00    -0.212 NA
HETATM    3  C   UNL     1       8.933  15.111  26.519  0.00  0.00     0.200 A 
HETATM    4  N   UNL     1       9.717  15.819  25.712  0.00  0.00    -0.218 NA
HETATM    5  C   UNL     1       9.711  15.529  24.409  0.00  0.00     0.073 A 
HETATM    6  C   UNL     1      10.467  16.324  23.556  0.00  0.00     0.033 A 
HETATM    7  C   UNL     1      10.479  16.128  22.172  0.00  0.00     0.009 A 
HETATM    8  C   UNL     1       9.774  15.066  21.624  0.00  0.00    -0.061 A 
HETATM    9  C   UNL     1       9.615  14.895  20.144  0.00  0.00     0.048 C 
HETATM   10  C   UNL     1       9.064  14.226  22.483  0.00  0.00     0.023 A 
HETATM   11  C   UNL     1       8.949  14.486  23.876  0.00  0.00     0.028 A 
ENDROOT
BRANCH   1  12
HETATM   12  C   UNL     1       7.046  12.853  24.344  0.00  0.00     0.274 C 
HETATM   13  N   UNL     1       5.752  13.241  24.022  0.00  0.00    -0.338 N 
HETATM   14  C   UNL     1       4.814  12.206  23.585  0.00  0.00     0.165 A 
HETATM   15  C   UNL     1       5.124  14.563  24.089  0.00  0.00     0.165 A 
HETATM   16  C   UNL     1       3.509  12.919  23.494  0.00  0.00    -0.030 A 
HETATM   17  C   UNL     1       3.676  14.267  23.812  0.00  0.00    -0.032 A 
HETATM   18  C   UNL     1       2.260  12.390  23.217  0.00  0.00     0.046 A 
HETATM   19  C   UNL     1       2.589  15.114  23.884  0.00  0.00     0.012 A 
HETATM   20  C   UNL     1       1.309  14.579  23.660  0.00  0.00     0.037 A 
HETATM   21  C   UNL     1       1.146  13.220  23.342  0.00  0.00     0.068 A 
HETATM   22  O   UNL     1       7.325  11.658  24.213  0.00  0.00    -0.266 OA
BRANCH  21  23
HETATM   23  O   UNL     1      -0.063  12.614  23.120  0.00  0.00    -0.356 OA
HETATM   24  C   UNL     1      -1.025  12.809  24.152  0.00  0.00     0.210 C 
ENDBRANCH  21  23
ENDBRANCH   1  12
BRANCH   3  25
HETATM   25  N   UNL     1       9.012  15.405  27.864  0.00  0.00    -0.271 NA
HETATM   26  H   UNL     1       8.347  16.123  28.109  0.00  0.00     0.127 HD
HETATM   27  H   UNL     1       8.967  14.544  28.395  0.00  0.00     0.127 HD
ENDBRANCH   3  25
TORSDOF 3
ENDMDL
MODEL 4
REMARK VINA RESULT:    -7.897      2.598      4.112
REMARK INTER + INTRA:          -9.287
REMARK INTER:                  -8.873
REMARK INTRA:                  -0.414
REMARK UNBOUND:                -0.236
REMARK  3 active torsions:
REMARK  status: ('A' for Active; 'I' for Inactive)
REMARK    1  A    between atoms: O_2  and  C_3 
REMARK       I    between atoms: N_10  and  C_11 
REMARK    2  A    between atoms: C_11  and  C_13 
REMARK    3  A    between atoms: C_15  and  N_16 
ROOT
HETATM    1  C   UNL     1       6.602  14.922  24.296  0.00  0.00     0.140 A 
HETATM    2  N   UNL     1       6.866  15.041  25.619  0.00  0.00    -0.212 NA
HETATM    3  C   UNL     1       8.138  14.906  25.985  0.00  0.00     0.200 A 
HETATM    4  N   UNL     1       9.154  14.675  25.157  0.00  0.00    -0.218 NA
HETATM    5  C   UNL     1       8.893  14.552  23.853  0.00  0.00     0.073 A 
HETATM    6  C   UNL     1       9.964  14.394  22.982  0.00  0.00     0.033 A 
HETATM    7  C   UNL     1       9.790  14.311  21.598  0.00  0.00     0.009 A 
HETATM    8  C   UNL     1       8.508  14.315  21.066  0.00  0.00    -0.061 A 
HETATM    9  C   UNL     1       8.258  14.390  19.591  0.00  0.00     0.048 C 
HETATM   10  C   UNL     1       7.425  14.409  21.942  0.00  0.00     0.023 A 
HETATM   11  C   UNL     1       7.595  14.613  23.339  0.00  0.00     0.028 A 
ENDROOT
BRANCH   1  12
HETATM   12  C   UNL     1       5.183  15.262  23.856  0.00  0.00     0.274 C 
HETATM   13  N   UNL     1       4.105  14.418  24.085  0.00  0.00    -0.338 N 
HETATM   14  C   UNL     1       2.786  14.848  23.618  0.00  0.00     0.165 A 
HETATM   15  C   UNL     1       4.065  13.091  24.704  0.00  0.00     0.165 A 
HETATM   16  C   UNL     1       1.915  13.664  23.861  0.00  0.00    -0.030 A 
HETATM   17  C   UNL     1       2.652  12.641  24.457  0.00  0.00    -0.032 A 
HETATM   18  C   UNL     1       0.586  13.491  23.512  0.00  0.00     0.046 A 
HETATM   19  C   UNL     1       2.080  11.409  24.697  0.00  0.00     0.012 A 
HETATM   20  C   UNL     1       0.748  11.200  24.298  0.00  0.00     0.037 A 
HETATM   21  C   UNL     1       0.011  12.233  23.696  0.00  0.00     0.068 A 
HETATM   22  O   UNL     1       4.950  16.336  23.294  0.00  0.00    -0.266 OA
BRANCH  21  23
HETATM   23  O   UNL     1      -1.285  12.114  23.267  0.00  0.00    -0.356 OA
HETATM   24  C   UNL     1      -2.076  11.193  24.011  0.00  0.00     0.210 C 
ENDBRANCH  21  23
ENDBRANCH   1  12
BRANCH   3  25
HETATM   25  N   UNL     1       8.444  14.970  27.327  0.00  0.00    -0.271 NA
HETATM   26  H   UNL     1       9.417  15.203  27.458  0.00  0.00     0.127 HD
HETATM   27  H   UNL     1       7.769  15.563  27.794  0.00  0.00     0.127 HD
ENDBRANCH   3  25
TORSDOF 3
ENDMDL
MODEL 5
REMARK VINA RESULT:    -7.895      4.580      6.948
REMARK INTER + INTRA:          -9.285
REMARK INTER:                  -8.870
REMARK INTRA:                  -0.415
REMARK UNBOUND:                -0.236
REMARK  3 active torsions:
REMARK  status: ('A' for Active; 'I' for Inactive)
REMARK    1  A    between atoms: O_2  and  C_3 
REMARK       I    between atoms: N_10  and  C_11 
REMARK    2  A    between atoms: C_11  and  C_13 
REMARK    3  A    between atoms: C_15  and  N_16 
ROOT
HETATM    1  C   UNL     1       6.234  12.448  22.849  0.00  0.00     0.140 A 
HETATM    2  N   UNL     1       7.545  12.612  22.552  0.00  0.00    -0.212 NA
HETATM    3  C   UNL     1       8.001  13.862  22.550  0.00  0.00     0.200 A 
HETATM    4  N   UNL     1       7.276  14.944  22.821  0.00  0.00    -0.218 NA
HETATM    5  C   UNL     1       5.982  14.783  23.109  0.00  0.00     0.073 A 
HETATM    6  C   UNL     1       5.247  15.904  23.473  0.00  0.00     0.033 A 
HETATM    7  C   UNL     1       3.901  15.823  23.842  0.00  0.00     0.009 A 
HETATM    8  C   UNL     1       3.245  14.601  23.780  0.00  0.00    -0.061 A 
HETATM    9  C   UNL     1       1.857  14.415  24.311  0.00  0.00     0.048 C 
HETATM   10  C   UNL     1       3.963  13.483  23.353  0.00  0.00     0.023 A 
HETATM   11  C   UNL     1       5.360  13.532  23.090  0.00  0.00     0.028 A 
ENDROOT
BRANCH   1  12
HETATM   12  C   UNL     1       5.757  11.013  23.038  0.00  0.00     0.274 C 
HETATM   13  N   UNL     1       5.554  10.145  21.974  0.00  0.00    -0.338 N 
HETATM   14  C   UNL     1       5.094   8.788  22.274  0.00  0.00     0.165 A 
HETATM   15  C   UNL     1       5.686  10.377  20.533  0.00  0.00     0.165 A 
HETATM   16  C   UNL     1       4.818   8.198  20.934  0.00  0.00    -0.030 A 
HETATM   17  C   UNL     1       5.127   9.118  19.932  0.00  0.00    -0.032 A 
HETATM   18  C   UNL     1       4.266   6.962  20.639  0.00  0.00     0.046 A 
HETATM   19  C   UNL     1       4.869   8.830  18.608  0.00  0.00     0.012 A 
HETATM   20  C   UNL     1       4.258   7.602  18.297  0.00  0.00     0.037 A 
HETATM   21  C   UNL     1       3.946   6.680  19.310  0.00  0.00     0.068 A 
HETATM   22  O   UNL     1       5.560  10.570  24.173  0.00  0.00    -0.266 OA
BRANCH  21  23
HETATM   23  O   UNL     1       3.343   5.468  19.099  0.00  0.00    -0.356 OA
HETATM   24  C   UNL     1       2.202   5.512  18.248  0.00  0.00     0.210 C 
ENDBRANCH  21  23
ENDBRANCH   1  12
BRANCH   3  25
HETATM   25  N   UNL     1       9.318  14.078  22.203  0.00  0.00    -0.271 NA
HETATM   26  H   UNL     1       9.875  13.261  22.404  0.00  0.00     0.127 HD
HETATM   27  H   UNL     1       9.357  14.434  21.256  0.00  0.00     0.127 HD
ENDBRANCH   3  25
TORSDOF 3
ENDMDL
MODEL 6
REMARK VINA RESULT:    -7.703      2.739      3.696
REMARK INTER + INTRA:          -9.065
REMARK INTER:                  -8.528
REMARK INTRA:                  -0.537
REMARK UNBOUND:                -0.236
REMARK  3 active torsions:
REMARK  status: ('A' for Active; 'I' for Inactive)
REMARK    1  A    between atoms: O_2  and  C_3 
REMARK       I    between atoms: N_10  and  C_11 
REMARK    2  A    between atoms: C_11  and  C_13 
REMARK    3  A    between atoms: C_15  and  N_16 
ROOT
HETATM    1  C   UNL     1       9.034  11.329  24.267  0.00  0.00     0.140 A 
HETATM    2  N   UNL     1       9.478  11.345  25.547  0.00  0.00    -0.212 NA
HETATM    3  C   UNL     1      10.741  11.724  25.731  0.00  0.00     0.200 A 
HETATM    4  N   UNL     1      11.581  12.089  24.767  0.00  0.00    -0.218 NA
HETATM    5  C   UNL     1      11.144  12.069  23.505  0.00  0.00     0.073 A 
HETATM    6  C   UNL     1      11.996  12.531  22.509  0.00  0.00     0.033 A 
HETATM    7  C   UNL     1      11.605  12.596  21.169  0.00  0.00     0.009 A 
HETATM    8  C   UNL     1      10.355  12.122  20.795  0.00  0.00    -0.061 A 
HETATM    9  C   UNL     1       9.815  12.309  19.410  0.00  0.00     0.048 C 
HETATM   10  C   UNL     1       9.520  11.598  21.783  0.00  0.00     0.023 A 
HETATM   11  C   UNL     1       9.860  11.637  23.163  0.00  0.00     0.028 A 
ENDROOT
BRANCH   1  12
HETATM   12  C   UNL     1       7.543  11.080  24.073  0.00  0.00     0.274 C 
HETATM   13  N   UNL     1       6.633  12.107  23.861  0.00  0.00    -0.338 N 
HETATM   14  C   UNL     1       5.224  11.749  23.687  0.00  0.00     0.165 A 
HETATM   15  C   UNL     1       6.844  13.556  23.821  0.00  0.00     0.165 A 
HETATM   16  C   UNL     1       4.521  13.062  23.658  0.00  0.00    -0.030 A 
HETATM   17  C   UNL     1       5.444  14.102  23.766  0.00  0.00    -0.032 A 
HETATM   18  C   UNL     1       3.158  13.305  23.611  0.00  0.00     0.046 A 
HETATM   19  C   UNL     1       5.022  15.413  23.851  0.00  0.00     0.012 A 
HETATM   20  C   UNL     1       3.640  15.671  23.861  0.00  0.00     0.037 A 
HETATM   21  C   UNL     1       2.714  14.619  23.755  0.00  0.00     0.068 A 
HETATM   22  O   UNL     1       7.103   9.927  24.074  0.00  0.00    -0.266 OA
BRANCH  21  23
HETATM   23  O   UNL     1       1.353  14.779  23.766  0.00  0.00    -0.356 OA
HETATM   24  C   UNL     1       0.611  13.565  23.702  0.00  0.00     0.210 C 
ENDBRANCH  21  23
ENDBRANCH   1  12
BRANCH   3  25
HETATM   25  N   UNL     1      11.249  11.706  27.013  0.00  0.00    -0.271 NA
HETATM   26  H   UNL     1      10.815  12.422  27.575  0.00  0.00     0.127 HD
HETATM   27  H   UNL     1      11.211  10.760  27.372  0.00  0.00     0.127 HD
ENDBRANCH   3  25
TORSDOF 3
ENDMDL
MODEL 7
REMARK VINA RESULT:    -7.692      1.789      1.950
REMARK INTER + INTRA:          -9.052
REMARK INTER:                  -9.224
REMARK INTRA:                   0.172
REMARK UNBOUND:                -0.236
REMARK  3 active torsions:
REMARK  status: ('A' for Active; 'I' for Inactive)
REMARK    1  A    between atoms: O_2  and  C_3 
REMARK       I    between atoms: N_10  and  C_11 
REMARK    2  A    between atoms: C_11  and  C_13 
REMARK    3  A    between atoms: C_15  and  N_16 
ROOT
HETATM    1  C   UNL     1       9.244  12.698  22.133  0.00  0.00     0.140 A 
HETATM    2  N   UNL     1       9.866  12.289  21.002  0.00  0.00    -0.212 NA
HETATM    3  C   UNL     1      11.148  12.624  20.876  0.00  0.00     0.200 A 
HETATM    4  N   UNL     1      11.853  13.312  21.770  0.00  0.00    -0.218 NA
HETATM    5  C   UNL     1      11.238  13.719  22.883  0.00  0.00     0.073 A 
HETATM    6  C   UNL     1      11.996  14.364  23.853  0.00  0.00     0.033 A 
HETATM    7  C   UNL     1      11.449  14.778  25.071  0.00  0.00     0.009 A 
HETATM    8  C   UNL     1      10.091  14.609  25.306  0.00  0.00    -0.061 A 
HETATM    9  C   UNL     1       9.475  14.882  26.643  0.00  0.00     0.048 C 
HETATM   10  C   UNL     1       9.313  14.019  24.308  0.00  0.00     0.023 A 
HETATM   11  C   UNL     1       9.879  13.488  23.117  0.00  0.00     0.028 A 
ENDROOT
BRANCH   1  12
HETATM   12  C   UNL     1       7.838  12.157  22.365  0.00  0.00     0.274 C 
HETATM   13  N   UNL     1       6.746  12.983  22.597  0.00  0.00    -0.338 N 
HETATM   14  C   UNL     1       5.442  12.352  22.807  0.00  0.00     0.165 A 
HETATM   15  C   UNL     1       6.679  14.441  22.716  0.00  0.00     0.165 A 
HETATM   16  C   UNL     1       4.553  13.484  23.191  0.00  0.00    -0.030 A 
HETATM   17  C   UNL     1       5.267  14.682  23.171  0.00  0.00    -0.032 A 
HETATM   18  C   UNL     1       3.229  13.435  23.597  0.00  0.00     0.046 A 
HETATM   19  C   UNL     1       4.676  15.861  23.579  0.00  0.00     0.012 A 
HETATM   20  C   UNL     1       3.351  15.818  24.046  0.00  0.00     0.037 A 
HETATM   21  C   UNL     1       2.637  14.608  24.067  0.00  0.00     0.068 A 
HETATM   22  O   UNL     1       7.628  10.942  22.325  0.00  0.00    -0.266 OA
BRANCH  21  23
HETATM   23  O   UNL     1       1.349  14.474  24.514  0.00  0.00    -0.356 OA
HETATM   24  C   UNL     1       0.492  13.736  23.648  0.00  0.00     0.210 C 
ENDBRANCH  21  23
ENDBRANCH   1  12
BRANCH   3  25
HETATM   25  N   UNL     1      11.806  12.272  19.717  0.00  0.00    -0.271 NA
HETATM   26  H   UNL     1      12.281  13.070  19.323  0.00  0.00     0.127 HD
HETATM   27  H   UNL     1      12.370  11.449  19.892  0.00  0.00     0.127 HD
ENDBRANCH   3  25
TORSDOF 3
ENDMDL
MODEL 8
REMARK VINA RESULT:    -7.640      2.477      3.487
REMARK INTER + INTRA:          -8.992
REMARK INTER:                  -8.756
REMARK INTRA:                  -0.236
REMARK UNBOUND:                -0.236
REMARK  3 active torsions:
REMARK  status: ('A' for Active; 'I' for Inactive)
REMARK    1  A    between atoms: O_2  and  C_3 
REMARK       I    between atoms: N_10  and  C_11 
REMARK    2  A    between atoms: C_11  and  C_13 
REMARK    3  A    between atoms: C_15  and  N_16 
ROOT
HETATM    1  C   UNL     1       9.259  12.580  22.793  0.00  0.00     0.140 A 
HETATM    2  N   UNL     1       9.399  11.320  22.317  0.00  0.00    -0.212 NA
HETATM    3  C   UNL     1      10.175  11.174  21.245  0.00  0.00     0.200 A 
HETATM    4  N   UNL     1      10.817  12.159  20.623  0.00  0.00    -0.218 NA
HETATM    5  C   UNL     1      10.674  13.402  21.090  0.00  0.00     0.073 A 
HETATM    6  C   UNL     1      11.411  14.416  20.491  0.00  0.00     0.033 A 
HETATM    7  C   UNL     1      11.366  15.737  20.947  0.00  0.00     0.009 A 
HETATM    8  C   UNL     1      10.508  16.075  21.985  0.00  0.00    -0.061 A 
HETATM    9  C   UNL     1      10.527  17.430  22.623  0.00  0.00     0.048 C 
HETATM   10  C   UNL     1       9.718  15.072  22.547  0.00  0.00     0.023 A 
HETATM   11  C   UNL     1       9.843  13.706  22.172  0.00  0.00     0.028 A 
ENDROOT
BRANCH   1  12
HETATM   12  C   UNL     1       8.529  12.722  24.124  0.00  0.00     0.274 C 
HETATM   13  N   UNL     1       7.323  13.398  24.249  0.00  0.00    -0.338 N 
HETATM   14  C   UNL     1       6.712  13.471  25.577  0.00  0.00     0.165 A 
HETATM   15  C   UNL     1       6.541  14.118  23.241  0.00  0.00     0.165 A 
HETATM   16  C   UNL     1       5.554  14.389  25.390  0.00  0.00    -0.030 A 
HETATM   17  C   UNL     1       5.469  14.788  24.056  0.00  0.00    -0.032 A 
HETATM   18  C   UNL     1       4.688  14.883  26.351  0.00  0.00     0.046 A 
HETATM   19  C   UNL     1       4.526  15.712  23.656  0.00  0.00     0.012 A 
HETATM   20  C   UNL     1       3.676  16.265  24.630  0.00  0.00     0.037 A 
HETATM   21  C   UNL     1       3.767  15.861  25.973  0.00  0.00     0.068 A 
HETATM   22  O   UNL     1       8.994  12.204  25.143  0.00  0.00    -0.266 OA
BRANCH  21  23
HETATM   23  O   UNL     1       2.988  16.354  26.987  0.00  0.00    -0.356 OA
HETATM   24  C   UNL     1       1.942  15.485  27.409  0.00  0.00     0.210 C 
ENDBRANCH  21  23
ENDBRANCH   1  12
BRANCH   3  25
HETATM   25  N   UNL     1      10.305   9.916  20.697  0.00  0.00    -0.271 NA
HETATM   26  H   UNL     1      11.194   9.510  20.950  0.00  0.00     0.127 HD
HETATM   27  H   UNL     1       9.479   9.372  20.915  0.00  0.00     0.127 HD
ENDBRANCH   3  25
TORSDOF 3
ENDMDL
MODEL 9
REMARK VINA RESULT:    -6.569      2.273      3.430
REMARK INTER + INTRA:          -7.765
REMARK INTER:                  -7.366
REMARK INTRA:                  -0.399
REMARK UNBOUND:                -0.236
REMARK  3 active torsions:
REMARK  status: ('A' for Active; 'I' for Inactive)
REMARK    1  A    between atoms: O_2  and  C_3 
REMARK       I    between atoms: N_10  and  C_11 
REMARK    2  A    between atoms: C_11  and  C_13 
REMARK    3  A    between atoms: C_15  and  N_16 
ROOT
HETATM    1  C   UNL     1       9.430  12.554  24.674  0.00  0.00     0.140 A 
HETATM    2  N   UNL     1       9.755  11.915  25.824  0.00  0.00    -0.212 NA
HETATM    3  C   UNL     1      10.823  12.372  26.474  0.00  0.00     0.200 A 
HETATM    4  N   UNL     1      11.576  13.397  26.087  0.00  0.00    -0.218 NA
HETATM    5  C   UNL     1      11.258  14.023  24.951  0.00  0.00     0.073 A 
HETATM    6  C   UNL     1      11.996  15.145  24.592  0.00  0.00     0.033 A 
HETATM    7  C   UNL     1      11.701  15.894  23.449  0.00  0.00     0.009 A 
HETATM    8  C   UNL     1      10.687  15.476  22.597  0.00  0.00    -0.061 A 
HETATM    9  C   UNL     1      10.217  16.314  21.448  0.00  0.00     0.048 C 
HETATM   10  C   UNL     1       9.986  14.313  22.920  0.00  0.00     0.023 A 
HETATM   11  C   UNL     1      10.198  13.612  24.139  0.00  0.00     0.028 A 
ENDROOT
BRANCH   1  12
HETATM   12  C   UNL     1       8.106  12.157  24.032  0.00  0.00     0.274 C 
HETATM   13  N   UNL     1       6.990  12.983  24.042  0.00  0.00    -0.338 N 
HETATM   14  C   UNL     1       5.771  12.497  23.394  0.00  0.00     0.165 A 
HETATM   15  C   UNL     1       6.802  14.300  24.655  0.00  0.00     0.165 A 
HETATM   16  C   UNL     1       4.749  13.525  23.734  0.00  0.00    -0.030 A 
HETATM   17  C   UNL     1       5.329  14.548  24.484  0.00  0.00    -0.032 A 
HETATM   18  C   UNL     1       3.392  13.512  23.454  0.00  0.00     0.046 A 
HETATM   19  C   UNL     1       4.558  15.573  24.994  0.00  0.00     0.012 A 
HETATM   20  C   UNL     1       3.171  15.543  24.766  0.00  0.00     0.037 A 
HETATM   21  C   UNL     1       2.591  14.509  24.011  0.00  0.00     0.068 A 
HETATM   22  O   UNL     1       8.001  11.073  23.450  0.00  0.00    -0.266 OA
BRANCH  21  23
HETATM   23  O   UNL     1       1.251  14.396  23.750  0.00  0.00    -0.356 OA
HETATM   24  C   UNL     1       0.509  13.687  24.737  0.00  0.00     0.210 C 
ENDBRANCH  21  23
ENDBRANCH   1  12
BRANCH   3  25
HETATM   25  N   UNL     1      11.219  11.720  27.622  0.00  0.00    -0.271 NA
HETATM   26  H   UNL     1      10.586  11.923  28.381  0.00  0.00     0.127 HD
HETATM   27  H   UNL     1      11.376  10.742  27.410  0.00  0.00     0.127 HD
ENDBRANCH   3  25
TORSDOF 3
ENDMDL
