MODEL 1
REMARK VINA RESULT:    -8.137      0.000      0.000
REMARK INTER + INTRA:         -13.202
REMARK INTER:                 -10.895
REMARK INTRA:                  -2.307
REMARK UNBOUND:                -1.736
REMARK  8 active torsions:
REMARK  status: ('A' for Active; 'I' for Inactive)
REMARK    1  A    between atoms: C_7  and  N_8 
REMARK    2  A    between atoms: C_14  and  C_15 
REMARK    3  A    between atoms: C_16  and  O_17 
REMARK    4  A    between atoms: C_19  and  O_20 
REMARK    5  A    between atoms: C_22  and  C_23 
REMARK       I    between atoms: C_23  and  N_25 
REMARK    6  A    between atoms: N_25  and  C_27 
REMARK    7  A    between atoms: C_27  and  C_28 
REMARK    8  A    between atoms: C_28  and  C_29 
ROOT
HETATM    1  C   UNL     1      -2.556  13.771  25.637  0.00  0.00     0.046 C 
HETATM    2  C   UNL     1      -3.070  12.594  26.220  0.00  0.00     0.082 C 
HETATM    3  C   UNL     1      -3.971  11.780  25.539  0.00  0.00     0.075 C 
HETATM    4  C   UNL     1      -4.356  12.101  24.239  0.00  0.00     0.084 C 
HETATM    5  C   UNL     1      -3.047  14.129  24.366  0.00  0.00     0.038 C 
HETATM    6  C   UNL     1      -3.882  13.264  23.610  0.00  0.00     0.066 C 
ENDROOT
BRANCH   1   7
HETATM    7  C   UNL     1      -1.537  14.550  26.426  0.00  0.00     0.172 A 
HETATM    8  N   UNL     1      -0.283  15.032  26.073  0.00  0.00    -0.241 N 
HETATM    9  C   UNL     1       0.198  15.646  27.233  0.00  0.00     0.349 A 
HETATM   10  O   UNL     1       1.270  16.168  27.482  0.00  0.00    -0.245 OA
HETATM   11  N   UNL     1      -0.814  15.519  28.172  0.00  0.00    -0.226 N 
HETATM   12  H   UNL     1      -0.746  15.818  29.135  0.00  0.00     0.194 HD
HETATM   13  N   UNL     1      -1.859  14.834  27.670  0.00  0.00    -0.151 NA
BRANCH   8  14
HETATM   14  C   UNL     1       0.510  14.961  24.881  0.00  0.00     0.084 C 
HETATM   15  C   UNL     1       0.312  15.769  23.760  0.00  0.00     0.143 C 
HETATM   16  F   UNL     1      -0.817  16.470  23.613  0.00  0.00    -0.204 F 
HETATM   17  C   UNL     1       1.223  15.825  22.701  0.00  0.00     0.044 C 
HETATM   18  C   UNL     1       2.285  14.934  22.649  0.00  0.00     0.003 C 
HETATM   19  C   UNL     1       2.422  13.995  23.661  0.00  0.00     0.002 C 
HETATM   20  C   UNL     1       1.566  14.032  24.772  0.00  0.00     0.033 C 
ENDBRANCH   8  14
ENDBRANCH   1   7
BRANCH   2  21
HETATM   21  O   UNL     1      -2.736  12.145  27.474  0.00  0.00    -0.360 OA
HETATM   22  H   UNL     1      -2.332  11.254  27.382  0.00  0.00     0.217 HD
ENDBRANCH   2  21
BRANCH   6  23
HETATM   23  C   UNL     1      -4.003  13.382  22.100  0.00  0.00     0.256 C 
HETATM   24  O   UNL     1      -3.358  12.571  21.432  0.00  0.00    -0.267 OA
HETATM   25  N   UNL     1      -4.707  14.423  21.463  0.00  0.00    -0.352 N 
HETATM   26  C   UNL     1      -5.471  15.430  22.174  0.00  0.00     0.152 C 
BRANCH  25  27
HETATM   27  C   UNL     1      -4.325  14.795  20.085  0.00  0.00     0.125 C 
BRANCH  27  28
HETATM   28  C   UNL     1      -3.442  16.028  19.830  0.00  0.00     0.020 C 
BRANCH  28  29
HETATM   29  C   UNL     1      -2.178  16.174  20.678  0.00  0.00    -0.003 C 
HETATM   30  C   UNL     1      -1.058  16.953  20.006  0.00  0.00     0.005 C 
ENDBRANCH  28  29
ENDBRANCH  27  28
ENDBRANCH  25  27
ENDBRANCH   6  23
BRANCH   4  31
HETATM   31  O   UNL     1      -5.226  11.254  23.607  0.00  0.00    -0.360 OA
HETATM   32  H   UNL     1      -5.724  11.748  22.934  0.00  0.00     0.217 HD
ENDBRANCH   4  31
TORSDOF 8
ENDMDL
MODEL 2
REMARK VINA RESULT:    -8.126      3.171      5.496
REMARK INTER + INTRA:         -13.186
REMARK INTER:                 -11.477
REMARK INTRA:                  -1.709
REMARK UNBOUND:                -1.736
REMARK  8 active torsions:
REMARK  status: ('A' for Active; 'I' for Inactive)
REMARK    1  A    between atoms: C_7  and  N_8 
REMARK    2  A    between atoms: C_14  and  C_15 
REMARK    3  A    between atoms: C_16  and  O_17 
REMARK    4  A    between atoms: C_19  and  O_20 
REMARK    5  A    between atoms: C_22  and  C_23 
REMARK       I    between atoms: C_23  and  N_25 
REMARK    6  A    between atoms: N_25  and  C_27 
REMARK    7  A    between atoms: C_27  and  C_28 
REMARK    8  A    between atoms: C_28  and  C_29 
ROOT
HETATM    1  C   UNL     1      -2.980  13.983  23.372  0.00  0.00     0.046 C 
HETATM    2  C   UNL     1      -3.838  14.166  22.267  0.00  0.00     0.082 C 
HETATM    3  C   UNL     1      -3.462  14.949  21.178  0.00  0.00     0.075 C 
HETATM    4  C   UNL     1      -2.201  15.541  21.146  0.00  0.00     0.084 C 
HETATM    5  C   UNL     1      -1.757  14.683  23.363  0.00  0.00     0.038 C 
HETATM    6  C   UNL     1      -1.307  15.399  22.222  0.00  0.00     0.066 C 
ENDROOT
BRANCH   1   7
HETATM    7  C   UNL     1      -3.449  13.067  24.471  0.00  0.00     0.172 A 
HETATM    8  N   UNL     1      -2.881  11.918  25.006  0.00  0.00    -0.241 N 
HETATM    9  C   UNL     1      -3.793  11.492  25.975  0.00  0.00     0.349 A 
HETATM   10  O   UNL     1      -3.807  10.505  26.689  0.00  0.00    -0.245 OA
HETATM   11  N   UNL     1      -4.811  12.434  25.972  0.00  0.00    -0.226 N 
HETATM   12  H   UNL     1      -5.651  12.375  26.531  0.00  0.00     0.194 HD
HETATM   13  N   UNL     1      -4.594  13.379  25.037  0.00  0.00    -0.151 NA
BRANCH   8  14
HETATM   14  C   UNL     1      -1.690  11.172  24.720  0.00  0.00     0.084 C 
HETATM   15  C   UNL     1      -1.379  10.644  23.467  0.00  0.00     0.143 C 
HETATM   16  F   UNL     1      -2.312  10.550  22.514  0.00  0.00    -0.204 F 
HETATM   17  C   UNL     1      -0.124  10.107  23.166  0.00  0.00     0.044 C 
HETATM   18  C   UNL     1       0.813   9.922  24.172  0.00  0.00     0.003 C 
HETATM   19  C   UNL     1       0.480  10.277  25.471  0.00  0.00     0.002 C 
HETATM   20  C   UNL     1      -0.739  10.920  25.731  0.00  0.00     0.033 C 
ENDBRANCH   8  14
ENDBRANCH   1   7
BRANCH   2  21
HETATM   21  O   UNL     1      -5.085  13.603  22.156  0.00  0.00    -0.360 OA
HETATM   22  H   UNL     1      -5.668  14.242  21.691  0.00  0.00     0.217 HD
ENDBRANCH   2  21
BRANCH   6  23
HETATM   23  C   UNL     1       0.162  15.716  22.000  0.00  0.00     0.256 C 
HETATM   24  O   UNL     1       0.482  16.905  22.060  0.00  0.00    -0.267 OA
HETATM   25  N   UNL     1       1.111  14.745  21.624  0.00  0.00    -0.352 N 
HETATM   26  C   UNL     1       0.812  13.330  21.507  0.00  0.00     0.152 C 
BRANCH  25  27
HETATM   27  C   UNL     1       2.321  15.183  20.898  0.00  0.00     0.125 C 
BRANCH  27  28
HETATM   28  C   UNL     1       3.648  14.425  21.071  0.00  0.00     0.020 C 
BRANCH  28  29
HETATM   29  C   UNL     1       4.389  14.601  22.398  0.00  0.00    -0.003 C 
HETATM   30  C   UNL     1       5.866  14.936  22.251  0.00  0.00     0.005 C 
ENDBRANCH  28  29
ENDBRANCH  27  28
ENDBRANCH  25  27
ENDBRANCH   6  23
BRANCH   4  31
HETATM   31  O   UNL     1      -1.874  16.281  20.042  0.00  0.00    -0.360 OA
HETATM   32  H   UNL     1      -1.158  16.898  20.268  0.00  0.00     0.217 HD
ENDBRANCH   4  31
TORSDOF 8
ENDMDL
MODEL 3
REMARK VINA RESULT:    -7.876      2.343      6.117
REMARK INTER + INTRA:         -12.835
REMARK INTER:                 -11.088
REMARK INTRA:                  -1.747
REMARK UNBOUND:                -1.736
REMARK  8 active torsions:
REMARK  status: ('A' for Active; 'I' for Inactive)
REMARK    1  A    between atoms: C_7  and  N_8 
REMARK    2  A    between atoms: C_14  and  C_15 
REMARK    3  A    between atoms: C_16  and  O_17 
REMARK    4  A    between atoms: C_19  and  O_20 
REMARK    5  A    between atoms: C_22  and  C_23 
REMARK       I    between atoms: C_23  and  N_25 
REMARK    6  A    between atoms: N_25  and  C_27 
REMARK    7  A    between atoms: C_27  and  C_28 
REMARK    8  A    between atoms: C_28  and  C_29 
ROOT
HETATM    1  C   UNL     1      -1.794  13.455  25.570  0.00  0.00     0.046 C 
HETATM    2  C   UNL     1      -1.882  14.097  26.823  0.00  0.00     0.082 C 
HETATM    3  C   UNL     1      -0.920  15.015  27.238  0.00  0.00     0.075 C 
HETATM    4  C   UNL     1       0.139  15.345  26.395  0.00  0.00     0.084 C 
HETATM    5  C   UNL     1      -0.654  13.725  24.785  0.00  0.00     0.038 C 
HETATM    6  C   UNL     1       0.282  14.733  25.138  0.00  0.00     0.066 C 
ENDROOT
BRANCH   1   7
HETATM    7  C   UNL     1      -2.915  12.529  25.182  0.00  0.00     0.172 A 
HETATM    8  N   UNL     1      -3.667  12.442  24.018  0.00  0.00    -0.241 N 
HETATM    9  C   UNL     1      -4.579  11.411  24.262  0.00  0.00     0.349 A 
HETATM   10  O   UNL     1      -5.498  10.975  23.593  0.00  0.00    -0.245 OA
HETATM   11  N   UNL     1      -4.278  10.938  25.530  0.00  0.00    -0.226 N 
HETATM   12  H   UNL     1      -4.801  10.222  26.015  0.00  0.00     0.194 HD
HETATM   13  N   UNL     1      -3.273  11.641  26.085  0.00  0.00    -0.151 NA
BRANCH   8  14
HETATM   14  C   UNL     1      -3.686  13.182  22.789  0.00  0.00     0.084 C 
HETATM   15  C   UNL     1      -2.893  12.878  21.682  0.00  0.00     0.143 C 
HETATM   16  F   UNL     1      -1.850  12.050  21.793  0.00  0.00    -0.204 F 
HETATM   17  C   UNL     1      -3.080  13.480  20.434  0.00  0.00     0.044 C 
HETATM   18  C   UNL     1      -3.963  14.542  20.299  0.00  0.00     0.003 C 
HETATM   19  C   UNL     1      -4.648  14.989  21.418  0.00  0.00     0.002 C 
HETATM   20  C   UNL     1      -4.533  14.299  22.634  0.00  0.00     0.033 C 
ENDBRANCH   8  14
ENDBRANCH   1   7
BRANCH   2  21
HETATM   21  O   UNL     1      -2.897  13.892  27.724  0.00  0.00    -0.360 OA
HETATM   22  H   UNL     1      -3.600  13.371  27.278  0.00  0.00     0.217 HD
ENDBRANCH   2  21
BRANCH   6  23
HETATM   23  C   UNL     1       1.194  15.378  24.109  0.00  0.00     0.256 C 
HETATM   24  O   UNL     1       0.771  16.399  23.563  0.00  0.00    -0.267 OA
HETATM   25  N   UNL     1       2.410  14.801  23.689  0.00  0.00    -0.352 N 
HETATM   26  C   UNL     1       2.966  13.591  24.262  0.00  0.00     0.152 C 
BRANCH  25  27
HETATM   27  C   UNL     1       2.932  15.149  22.352  0.00  0.00     0.125 C 
BRANCH  27  28
HETATM   28  C   UNL     1       4.056  14.314  21.716  0.00  0.00     0.020 C 
BRANCH  28  29
HETATM   29  C   UNL     1       5.381  15.024  21.428  0.00  0.00    -0.003 C 
HETATM   30  C   UNL     1       6.339  15.067  22.608  0.00  0.00     0.005 C 
ENDBRANCH  28  29
ENDBRANCH  27  28
ENDBRANCH  25  27
ENDBRANCH   6  23
BRANCH   4  31
HETATM   31  O   UNL     1       1.042  16.270  26.843  0.00  0.00    -0.360 OA
HETATM   32  H   UNL     1       0.611  17.139  26.905  0.00  0.00     0.217 HD
ENDBRANCH   4  31
TORSDOF 8
ENDMDL
MODEL 4
REMARK VINA RESULT:    -7.529      3.077      5.486
REMARK INTER + INTRA:         -12.345
REMARK INTER:                 -10.450
REMARK INTRA:                  -1.896
REMARK UNBOUND:                -1.736
REMARK  8 active torsions:
REMARK  status: ('A' for Active; 'I' for Inactive)
REMARK    1  A    between atoms: C_7  and  N_8 
REMARK    2  A    between atoms: C_14  and  C_15 
REMARK    3  A    between atoms: C_16  and  O_17 
REMARK    4  A    between atoms: C_19  and  O_20 
REMARK    5  A    between atoms: C_22  and  C_23 
REMARK       I    between atoms: C_23  and  N_25 
REMARK    6  A    between atoms: N_25  and  C_27 
REMARK    7  A    between atoms: C_27  and  C_28 
REMARK    8  A    between atoms: C_28  and  C_29 
ROOT
HETATM    1  C   UNL     1      -2.834  13.608  24.054  0.00  0.00     0.046 C 
HETATM    2  C   UNL     1      -3.484  13.752  22.810  0.00  0.00     0.082 C 
HETATM    3  C   UNL     1      -2.927  14.511  21.784  0.00  0.00     0.075 C 
HETATM    4  C   UNL     1      -1.685  15.118  21.960  0.00  0.00     0.084 C 
HETATM    5  C   UNL     1      -1.634  14.322  24.242  0.00  0.00     0.038 C 
HETATM    6  C   UNL     1      -0.995  15.014  23.180  0.00  0.00     0.066 C 
ENDROOT
BRANCH   1   7
HETATM    7  C   UNL     1      -3.483  12.714  25.078  0.00  0.00     0.172 A 
HETATM    8  N   UNL     1      -3.061  11.519  25.645  0.00  0.00    -0.241 N 
HETATM    9  C   UNL     1      -4.100  11.149  26.503  0.00  0.00     0.349 A 
HETATM   10  O   UNL     1      -4.261  10.156  27.190  0.00  0.00    -0.245 OA
HETATM   11  N   UNL     1      -5.040  12.164  26.413  0.00  0.00    -0.226 N 
HETATM   12  H   UNL     1      -5.937  12.160  26.879  0.00  0.00     0.194 HD
HETATM   13  N   UNL     1      -4.657  13.103  25.527  0.00  0.00    -0.151 NA
BRANCH   8  14
HETATM   14  C   UNL     1      -1.903  10.690  25.471  0.00  0.00     0.084 C 
HETATM   15  C   UNL     1      -1.484  10.180  24.242  0.00  0.00     0.143 C 
HETATM   16  F   UNL     1      -2.299  10.193  23.182  0.00  0.00    -0.204 F 
HETATM   17  C   UNL     1      -0.246   9.555  24.069  0.00  0.00     0.044 C 
HETATM   18  C   UNL     1       0.547   9.263  25.169  0.00  0.00     0.003 C 
HETATM   19  C   UNL     1       0.087   9.601  26.434  0.00  0.00     0.002 C 
HETATM   20  C   UNL     1      -1.103  10.330  26.576  0.00  0.00     0.033 C 
ENDBRANCH   8  14
ENDBRANCH   1   7
BRANCH   2  21
HETATM   21  O   UNL     1      -4.687  13.170  22.497  0.00  0.00    -0.360 OA
HETATM   22  H   UNL     1      -5.030  13.600  21.682  0.00  0.00     0.217 HD
ENDBRANCH   2  21
BRANCH   6  23
HETATM   23  C   UNL     1       0.488  15.344  23.213  0.00  0.00     0.256 C 
HETATM   24  O   UNL     1       0.786  16.540  23.164  0.00  0.00    -0.267 OA
HETATM   25  N   UNL     1       1.496  14.361  23.178  0.00  0.00    -0.352 N 
HETATM   26  C   UNL     1       1.231  12.935  23.209  0.00  0.00     0.152 C 
BRANCH  25  27
HETATM   27  C   UNL     1       2.827  14.731  22.653  0.00  0.00     0.125 C 
BRANCH  27  28
HETATM   28  C   UNL     1       3.237  14.333  21.225  0.00  0.00     0.020 C 
BRANCH  28  29
HETATM   29  C   UNL     1       2.560  15.071  20.069  0.00  0.00    -0.003 C 
HETATM   30  C   UNL     1       2.622  16.588  20.171  0.00  0.00     0.005 C 
ENDBRANCH  28  29
ENDBRANCH  27  28
ENDBRANCH  25  27
ENDBRANCH   6  23
BRANCH   4  31
HETATM   31  O   UNL     1      -1.174  15.833  20.911  0.00  0.00    -0.360 OA
HETATM   32  H   UNL     1      -1.501  16.747  20.955  0.00  0.00     0.217 HD
ENDBRANCH   4  31
TORSDOF 8
ENDMDL
MODEL 5
REMARK VINA RESULT:    -7.362      3.443      6.461
REMARK INTER + INTRA:         -12.111
REMARK INTER:                 -11.243
REMARK INTRA:                  -0.867
REMARK UNBOUND:                -1.736
REMARK  8 active torsions:
REMARK  status: ('A' for Active; 'I' for Inactive)
REMARK    1  A    between atoms: C_7  and  N_8 
REMARK    2  A    between atoms: C_14  and  C_15 
REMARK    3  A    between atoms: C_16  and  O_17 
REMARK    4  A    between atoms: C_19  and  O_20 
REMARK    5  A    between atoms: C_22  and  C_23 
REMARK       I    between atoms: C_23  and  N_25 
REMARK    6  A    between atoms: N_25  and  C_27 
REMARK    7  A    between atoms: C_27  and  C_28 
REMARK    8  A    between atoms: C_28  and  C_29 
ROOT
HETATM    1  C   UNL     1      -1.462  12.974  22.505  0.00  0.00     0.046 C 
HETATM    2  C   UNL     1      -1.569  12.064  21.433  0.00  0.00     0.082 C 
HETATM    3  C   UNL     1      -0.540  11.904  20.509  0.00  0.00     0.075 C 
HETATM    4  C   UNL     1       0.644  12.625  20.653  0.00  0.00     0.084 C 
HETATM    5  C   UNL     1      -0.300  13.769  22.562  0.00  0.00     0.038 C 
HETATM    6  C   UNL     1       0.806  13.551  21.698  0.00  0.00     0.066 C 
ENDROOT
BRANCH   1   7
HETATM    7  C   UNL     1      -2.600  13.028  23.488  0.00  0.00     0.172 A 
HETATM    8  N   UNL     1      -2.825  12.325  24.665  0.00  0.00    -0.241 N 
HETATM    9  C   UNL     1      -4.064  12.784  25.120  0.00  0.00     0.349 A 
HETATM   10  O   UNL     1      -4.747  12.449  26.070  0.00  0.00    -0.245 OA
HETATM   11  N   UNL     1      -4.465  13.749  24.207  0.00  0.00    -0.226 N 
HETATM   12  H   UNL     1      -5.352  14.232  24.233  0.00  0.00     0.194 HD
HETATM   13  N   UNL     1      -3.569  13.874  23.209  0.00  0.00    -0.151 NA
BRANCH   8  14
HETATM   14  C   UNL     1      -2.105  11.301  25.363  0.00  0.00     0.084 C 
HETATM   15  C   UNL     1      -1.893  11.295  26.742  0.00  0.00     0.143 C 
HETATM   16  F   UNL     1      -2.100  12.396  27.471  0.00  0.00    -0.204 F 
HETATM   17  C   UNL     1      -1.374  10.188  27.420  0.00  0.00     0.044 C 
HETATM   18  C   UNL     1      -0.884   9.103  26.708  0.00  0.00     0.003 C 
HETATM   19  C   UNL     1      -0.919   9.141  25.322  0.00  0.00     0.002 C 
HETATM   20  C   UNL     1      -1.547  10.208  24.665  0.00  0.00     0.033 C 
ENDBRANCH   8  14
ENDBRANCH   1   7
BRANCH   2  21
HETATM   21  O   UNL     1      -2.663  11.265  21.206  0.00  0.00    -0.360 OA
HETATM   22  H   UNL     1      -2.650  10.537  21.866  0.00  0.00     0.217 HD
ENDBRANCH   2  21
BRANCH   6  23
HETATM   23  C   UNL     1       2.207  14.020  22.051  0.00  0.00     0.256 C 
HETATM   24  O   UNL     1       2.690  13.571  23.093  0.00  0.00    -0.267 OA
HETATM   25  N   UNL     1       2.898  15.004  21.317  0.00  0.00    -0.352 N 
HETATM   26  C   UNL     1       2.391  15.600  20.096  0.00  0.00     0.152 C 
BRANCH  25  27
HETATM   27  C   UNL     1       3.945  15.791  22.001  0.00  0.00     0.125 C 
BRANCH  27  28
HETATM   28  C   UNL     1       5.427  15.583  21.648  0.00  0.00     0.020 C 
BRANCH  28  29
HETATM   29  C   UNL     1       6.340  15.036  22.746  0.00  0.00    -0.003 C 
HETATM   30  C   UNL     1       7.524  15.932  23.082  0.00  0.00     0.005 C 
ENDBRANCH  28  29
ENDBRANCH  27  28
ENDBRANCH  25  27
ENDBRANCH   6  23
BRANCH   4  31
HETATM   31  O   UNL     1       1.633  12.413  19.731  0.00  0.00    -0.360 OA
HETATM   32  H   UNL     1       1.235  12.314  18.849  0.00  0.00     0.217 HD
ENDBRANCH   4  31
TORSDOF 8
ENDMDL
MODEL 6
REMARK VINA RESULT:    -7.307      2.548      5.095
REMARK INTER + INTRA:         -12.033
REMARK INTER:                 -10.514
REMARK INTRA:                  -1.519
REMARK UNBOUND:                -1.736
REMARK  8 active torsions:
REMARK  status: ('A' for Active; 'I' for Inactive)
REMARK    1  A    between atoms: C_7  and  N_8 
REMARK    2  A    between atoms: C_14  and  C_15 
REMARK    3  A    between atoms: C_16  and  O_17 
REMARK    4  A    between atoms: C_19  and  O_20 
REMARK    5  A    between atoms: C_22  and  C_23 
REMARK       I    between atoms: C_23  and  N_25 
REMARK    6  A    between atoms: N_25  and  C_27 
REMARK    7  A    between atoms: C_27  and  C_28 
REMARK    8  A    between atoms: C_28  and  C_29 
ROOT
HETATM    1  C   UNL     1      -3.022  13.824  22.497  0.00  0.00     0.046 C 
HETATM    2  C   UNL     1      -4.256  14.021  21.842  0.00  0.00     0.082 C 
HETATM    3  C   UNL     1      -4.447  15.077  20.955  0.00  0.00     0.075 C 
HETATM    4  C   UNL     1      -3.397  15.947  20.669  0.00  0.00     0.084 C 
HETATM    5  C   UNL     1      -2.013  14.782  22.273  0.00  0.00     0.038 C 
HETATM    6  C   UNL     1      -2.147  15.804  21.296  0.00  0.00     0.066 C 
ENDROOT
BRANCH   1   7
HETATM    7  C   UNL     1      -2.892  12.617  23.387  0.00  0.00     0.172 A 
HETATM    8  N   UNL     1      -2.391  12.482  24.675  0.00  0.00    -0.241 N 
HETATM    9  C   UNL     1      -2.504  11.117  24.956  0.00  0.00     0.349 A 
HETATM   10  O   UNL     1      -2.153  10.463  25.922  0.00  0.00    -0.245 OA
HETATM   11  N   UNL     1      -3.094  10.551  23.837  0.00  0.00    -0.226 N 
HETATM   12  H   UNL     1      -3.260   9.562  23.712  0.00  0.00     0.194 HD
HETATM   13  N   UNL     1      -3.309  11.476  22.881  0.00  0.00    -0.151 NA
BRANCH   8  14
HETATM   14  C   UNL     1      -1.808  13.393  25.615  0.00  0.00     0.084 C 
HETATM   15  C   UNL     1      -0.581  14.033  25.427  0.00  0.00     0.143 C 
HETATM   16  F   UNL     1       0.270  13.615  24.486  0.00  0.00    -0.204 F 
HETATM   17  C   UNL     1      -0.138  15.069  26.254  0.00  0.00     0.044 C 
HETATM   18  C   UNL     1      -0.836  15.384  27.411  0.00  0.00     0.003 C 
HETATM   19  C   UNL     1      -1.973  14.654  27.727  0.00  0.00     0.002 C 
HETATM   20  C   UNL     1      -2.464  13.698  26.826  0.00  0.00     0.033 C 
ENDBRANCH   8  14
ENDBRANCH   1   7
BRANCH   2  21
HETATM   21  O   UNL     1      -5.353  13.211  22.004  0.00  0.00    -0.360 OA
HETATM   22  H   UNL     1      -5.650  12.919  21.114  0.00  0.00     0.217 HD
ENDBRANCH   2  21
BRANCH   6  23
HETATM   23  C   UNL     1      -0.940  16.501  20.692  0.00  0.00     0.256 C 
HETATM   24  O   UNL     1      -0.968  16.692  19.474  0.00  0.00    -0.267 OA
HETATM   25  N   UNL     1       0.217  16.817  21.432  0.00  0.00    -0.352 N 
HETATM   26  C   UNL     1       0.340  16.604  22.861  0.00  0.00     0.152 C 
BRANCH  25  27
HETATM   27  C   UNL     1       1.500  16.952  20.713  0.00  0.00     0.125 C 
BRANCH  27  28
HETATM   28  C   UNL     1       2.047  15.785  19.875  0.00  0.00     0.020 C 
BRANCH  28  29
HETATM   29  C   UNL     1       2.732  14.641  20.625  0.00  0.00    -0.003 C 
HETATM   30  C   UNL     1       1.774  13.660  21.283  0.00  0.00     0.005 C 
ENDBRANCH  28  29
ENDBRANCH  27  28
ENDBRANCH  25  27
ENDBRANCH   6  23
BRANCH   4  31
HETATM   31  O   UNL     1      -3.632  16.954  19.773  0.00  0.00    -0.360 OA
HETATM   32  H   UNL     1      -4.538  17.285  19.891  0.00  0.00     0.217 HD
ENDBRANCH   4  31
TORSDOF 8
ENDMDL
MODEL 7
REMARK VINA RESULT:    -7.278      4.795      7.177
REMARK INTER + INTRA:         -11.991
REMARK INTER:                 -10.304
REMARK INTRA:                  -1.688
REMARK UNBOUND:                -1.736
REMARK  8 active torsions:
REMARK  status: ('A' for Active; 'I' for Inactive)
REMARK    1  A    between atoms: C_7  and  N_8 
REMARK    2  A    between atoms: C_14  and  C_15 
REMARK    3  A    between atoms: C_16  and  O_17 
REMARK    4  A    between atoms: C_19  and  O_20 
REMARK    5  A    between atoms: C_22  and  C_23 
REMARK       I    between atoms: C_23  and  N_25 
REMARK    6  A    between atoms: N_25  and  C_27 
REMARK    7  A    between atoms: C_27  and  C_28 
REMARK    8  A    between atoms: C_28  and  C_29 
ROOT
HETATM    1  C   UNL     1      -1.132  10.443  23.961  0.00  0.00     0.046 C 
HETATM    2  C   UNL     1      -1.846  10.487  25.177  0.00  0.00     0.082 C 
HETATM    3  C   UNL     1      -1.404   9.799  26.304  0.00  0.00     0.075 C 
HETATM    4  C   UNL     1      -0.213   9.077  26.257  0.00  0.00     0.084 C 
HETATM    5  C   UNL     1       0.008   9.617  23.911  0.00  0.00     0.038 C 
HETATM    6  C   UNL     1       0.537   8.992  25.071  0.00  0.00     0.066 C 
ENDROOT
BRANCH   1   7
HETATM    7  C   UNL     1      -1.655  11.272  22.818  0.00  0.00     0.172 A 
HETATM    8  N   UNL     1      -1.097  12.349  22.140  0.00  0.00    -0.241 N 
HETATM    9  C   UNL     1      -2.066  12.717  21.203  0.00  0.00     0.349 A 
HETATM   10  O   UNL     1      -2.105  13.635  20.404  0.00  0.00    -0.245 OA
HETATM   11  N   UNL     1      -3.106  11.813  21.364  0.00  0.00    -0.226 N 
HETATM   12  H   UNL     1      -3.983  11.850  20.863  0.00  0.00     0.194 HD
HETATM   13  N   UNL     1      -2.847  10.949  22.364  0.00  0.00    -0.151 NA
BRANCH   8  14
HETATM   14  C   UNL     1       0.132  13.076  22.271  0.00  0.00     0.084 C 
HETATM   15  C   UNL     1       1.117  13.132  21.285  0.00  0.00     0.143 C 
HETATM   16  F   UNL     1       1.110  12.272  20.262  0.00  0.00    -0.204 F 
HETATM   17  C   UNL     1       2.202  14.011  21.352  0.00  0.00     0.044 C 
HETATM   18  C   UNL     1       2.429  14.748  22.505  0.00  0.00     0.003 C 
HETATM   19  C   UNL     1       1.566  14.594  23.580  0.00  0.00     0.002 C 
HETATM   20  C   UNL     1       0.421  13.795  23.450  0.00  0.00     0.033 C 
ENDBRANCH   8  14
ENDBRANCH   1   7
BRANCH   2  21
HETATM   21  O   UNL     1      -3.007  11.196  25.365  0.00  0.00    -0.360 OA
HETATM   22  H   UNL     1      -3.532  11.145  24.536  0.00  0.00     0.217 HD
ENDBRANCH   2  21
BRANCH   6  23
HETATM   23  C   UNL     1       1.985   8.540  25.151  0.00  0.00     0.256 C 
HETATM   24  O   UNL     1       2.785   9.343  25.636  0.00  0.00    -0.267 OA
HETATM   25  N   UNL     1       2.445   7.327  24.600  0.00  0.00    -0.352 N 
HETATM   26  C   UNL     1       1.574   6.340  23.990  0.00  0.00     0.152 C 
BRANCH  25  27
HETATM   27  C   UNL     1       3.867   7.220  24.214  0.00  0.00     0.125 C 
BRANCH  27  28
HETATM   28  C   UNL     1       4.268   7.176  22.730  0.00  0.00     0.020 C 
BRANCH  28  29
HETATM   29  C   UNL     1       5.762   7.234  22.405  0.00  0.00    -0.003 C 
HETATM   30  C   UNL     1       6.079   7.256  20.917  0.00  0.00     0.005 C 
ENDBRANCH  28  29
ENDBRANCH  27  28
ENDBRANCH  25  27
ENDBRANCH   6  23
BRANCH   4  31
HETATM   31  O   UNL     1       0.188   8.439  27.399  0.00  0.00    -0.360 OA
HETATM   32  H   UNL     1      -0.586   8.273  27.964  0.00  0.00     0.217 HD
ENDBRANCH   4  31
TORSDOF 8
ENDMDL
MODEL 8
REMARK VINA RESULT:    -7.265      4.336      5.427
REMARK INTER + INTRA:         -11.973
REMARK INTER:                 -10.372
REMARK INTRA:                  -1.602
REMARK UNBOUND:                -1.736
REMARK  8 active torsions:
REMARK  status: ('A' for Active; 'I' for Inactive)
REMARK    1  A    between atoms: C_7  and  N_8 
REMARK    2  A    between atoms: C_14  and  C_15 
REMARK    3  A    between atoms: C_16  and  O_17 
REMARK    4  A    between atoms: C_19  and  O_20 
REMARK    5  A    between atoms: C_22  and  C_23 
REMARK       I    between atoms: C_23  and  N_25 
REMARK    6  A    between atoms: N_25  and  C_27 
REMARK    7  A    between atoms: C_27  and  C_28 
REMARK    8  A    between atoms: C_28  and  C_29 
ROOT
HETATM    1  C   UNL     1      -2.547  10.818  26.173  0.00  0.00     0.046 C 
HETATM    2  C   UNL     1      -3.946  10.916  26.326  0.00  0.00     0.082 C 
HETATM    3  C   UNL     1      -4.749  11.469  25.332  0.00  0.00     0.075 C 
HETATM    4  C   UNL     1      -4.179  11.907  24.139  0.00  0.00     0.084 C 
HETATM    5  C   UNL     1      -1.986  11.369  25.004  0.00  0.00     0.038 C 
HETATM    6  C   UNL     1      -2.790  11.841  23.932  0.00  0.00     0.066 C 
ENDROOT
BRANCH   1   7
HETATM    7  C   UNL     1      -1.772  10.145  27.274  0.00  0.00     0.172 A 
HETATM    8  N   UNL     1      -0.774   9.180  27.231  0.00  0.00    -0.241 N 
HETATM    9  C   UNL     1      -0.467   8.929  28.571  0.00  0.00     0.349 A 
HETATM   10  O   UNL     1       0.292   8.128  29.086  0.00  0.00    -0.245 OA
HETATM   11  N   UNL     1      -1.273   9.785  29.307  0.00  0.00    -0.226 N 
HETATM   12  H   UNL     1      -1.321   9.803  30.316  0.00  0.00     0.194 HD
HETATM   13  N   UNL     1      -2.075  10.508  28.502  0.00  0.00    -0.151 NA
BRANCH   8  14
HETATM   14  C   UNL     1      -0.132   8.461  26.169  0.00  0.00     0.084 C 
HETATM   15  C   UNL     1      -0.364   7.115  25.884  0.00  0.00     0.143 C 
HETATM   16  F   UNL     1      -0.986   6.327  26.765  0.00  0.00    -0.204 F 
HETATM   17  C   UNL     1       0.112   6.498  24.723  0.00  0.00     0.044 C 
HETATM   18  C   UNL     1       0.990   7.172  23.886  0.00  0.00     0.003 C 
HETATM   19  C   UNL     1       1.383   8.459  24.225  0.00  0.00     0.002 C 
HETATM   20  C   UNL     1       0.806   9.100  25.331  0.00  0.00     0.033 C 
ENDBRANCH   8  14
ENDBRANCH   1   7
BRANCH   2  21
HETATM   21  O   UNL     1      -4.633  10.481  27.433  0.00  0.00    -0.360 OA
HETATM   22  H   UNL     1      -5.023   9.604  27.225  0.00  0.00     0.217 HD
ENDBRANCH   2  21
BRANCH   6  23
HETATM   23  C   UNL     1      -2.254  11.957  22.516  0.00  0.00     0.256 C 
HETATM   24  O   UNL     1      -2.515  11.025  21.752  0.00  0.00    -0.267 OA
HETATM   25  N   UNL     1      -1.400  12.997  22.098  0.00  0.00    -0.352 N 
HETATM   26  C   UNL     1      -1.026  14.117  22.940  0.00  0.00     0.152 C 
BRANCH  25  27
HETATM   27  C   UNL     1      -0.499  12.755  20.953  0.00  0.00     0.125 C 
BRANCH  27  28
HETATM   28  C   UNL     1       1.024  12.700  21.162  0.00  0.00     0.020 C 
BRANCH  28  29
HETATM   29  C   UNL     1       1.849  13.875  20.635  0.00  0.00    -0.003 C 
HETATM   30  C   UNL     1       3.103  14.175  21.443  0.00  0.00     0.005 C 
ENDBRANCH  28  29
ENDBRANCH  27  28
ENDBRANCH  25  27
ENDBRANCH   6  23
BRANCH   4  31
HETATM   31  O   UNL     1      -5.016  12.422  23.186  0.00  0.00    -0.360 OA
HETATM   32  H   UNL     1      -5.876  12.626  23.590  0.00  0.00     0.217 HD
ENDBRANCH   4  31
TORSDOF 8
ENDMDL
MODEL 9
REMARK VINA RESULT:    -7.104      4.338      5.974
REMARK INTER + INTRA:         -11.747
REMARK INTER:                 -10.012
REMARK INTRA:                  -1.736
REMARK UNBOUND:                -1.736
REMARK  8 active torsions:
REMARK  status: ('A' for Active; 'I' for Inactive)
REMARK    1  A    between atoms: C_7  and  N_8 
REMARK    2  A    between atoms: C_14  and  C_15 
REMARK    3  A    between atoms: C_16  and  O_17 
REMARK    4  A    between atoms: C_19  and  O_20 
REMARK    5  A    between atoms: C_22  and  C_23 
REMARK       I    between atoms: C_23  and  N_25 
REMARK    6  A    between atoms: N_25  and  C_27 
REMARK    7  A    between atoms: C_27  and  C_28 
REMARK    8  A    between atoms: C_28  and  C_29 
ROOT
HETATM    1  C   UNL     1      -1.413  11.156  24.129  0.00  0.00     0.046 C 
HETATM    2  C   UNL     1      -2.647  10.949  23.476  0.00  0.00     0.082 C 
HETATM    3  C   UNL     1      -2.895  11.473  22.210  0.00  0.00     0.075 C 
HETATM    4  C   UNL     1      -1.901  12.187  21.544  0.00  0.00     0.084 C 
HETATM    5  C   UNL     1      -0.468  11.975  23.480  0.00  0.00     0.038 C 
HETATM    6  C   UNL     1      -0.655  12.430  22.147  0.00  0.00     0.066 C 
ENDROOT
BRANCH   1   7
HETATM    7  C   UNL     1      -1.216  10.496  25.468  0.00  0.00     0.172 A 
HETATM    8  N   UNL     1      -0.377   9.461  25.861  0.00  0.00    -0.241 N 
HETATM    9  C   UNL     1      -0.664   9.268  27.215  0.00  0.00     0.349 A 
HETATM   10  O   UNL     1      -0.255   8.446  28.015  0.00  0.00    -0.245 OA
HETATM   11  N   UNL     1      -1.619  10.221  27.535  0.00  0.00    -0.226 N 
HETATM   12  H   UNL     1      -2.071  10.303  28.435  0.00  0.00     0.194 HD
HETATM   13  N   UNL     1      -1.957  10.951  26.455  0.00  0.00    -0.151 NA
BRANCH   8  14
HETATM   14  C   UNL     1       0.573   8.636  25.173  0.00  0.00     0.084 C 
HETATM   15  C   UNL     1       1.944   8.892  25.127  0.00  0.00     0.143 C 
HETATM   16  F   UNL     1       2.429  10.085  25.483  0.00  0.00    -0.204 F 
HETATM   17  C   UNL     1       2.867   7.966  24.632  0.00  0.00     0.044 C 
HETATM   18  C   UNL     1       2.425   6.813  23.999  0.00  0.00     0.003 C 
HETATM   19  C   UNL     1       1.061   6.601  23.870  0.00  0.00     0.002 C 
HETATM   20  C   UNL     1       0.154   7.483  24.475  0.00  0.00     0.033 C 
ENDBRANCH   8  14
ENDBRANCH   1   7
BRANCH   2  21
HETATM   21  O   UNL     1      -3.688  10.228  24.006  0.00  0.00    -0.360 OA
HETATM   22  H   UNL     1      -4.322  10.032  23.282  0.00  0.00     0.217 HD
ENDBRANCH   2  21
BRANCH   6  23
HETATM   23  C   UNL     1       0.511  12.858  21.273  0.00  0.00     0.256 C 
HETATM   24  O   UNL     1       0.904  12.038  20.442  0.00  0.00    -0.267 OA
HETATM   25  N   UNL     1       1.206  14.070  21.457  0.00  0.00    -0.352 N 
HETATM   26  C   UNL     1       0.823  15.078  22.427  0.00  0.00     0.152 C 
BRANCH  25  27
HETATM   27  C   UNL     1       2.605  14.160  20.991  0.00  0.00     0.125 C 
BRANCH  27  28
HETATM   28  C   UNL     1       3.753  14.304  22.004  0.00  0.00     0.020 C 
BRANCH  28  29
HETATM   29  C   UNL     1       5.136  14.658  21.453  0.00  0.00    -0.003 C 
HETATM   30  C   UNL     1       6.141  15.090  22.510  0.00  0.00     0.005 C 
ENDBRANCH  28  29
ENDBRANCH  27  28
ENDBRANCH  25  27
ENDBRANCH   6  23
BRANCH   4  31
HETATM   31  O   UNL     1      -2.190  12.659  20.292  0.00  0.00    -0.360 OA
HETATM   32  H   UNL     1      -1.452  12.457  19.693  0.00  0.00     0.217 HD
ENDBRANCH   4  31
TORSDOF 8
ENDMDL
