MODEL 1
REMARK VINA RESULT:    -8.104      0.000      0.000
REMARK INTER + INTRA:         -11.797
REMARK INTER:                 -10.386
REMARK INTRA:                  -1.411
REMARK UNBOUND:                -1.324
REMARK  6 active torsions:
REMARK  status: ('A' for Active; 'I' for Inactive)
REMARK    1  A    between atoms: C_2  and  C_3 
REMARK    2  A    between atoms: C_3  and  C_4 
REMARK    3  A    between atoms: C_6  and  C_7 
REMARK    4  A    between atoms: C_12  and  C_13 
REMARK    5  A    between atoms: C_23  and  O_24 
REMARK    6  A    between atoms: C_26  and  O_27 
ROOT
HETATM    1  C   UNL     1      -3.876  13.512  22.309  0.00  0.00     0.102 A 
HETATM    2  N   UNL     1      -5.111  13.449  21.771  0.00  0.00    -0.174 NA
HETATM    3  N   UNL     1      -4.931  13.768  20.481  0.00  0.00    -0.288 N 
HETATM    4  H   UNL     1      -5.747  13.815  19.879  0.00  0.00     0.188 HD
HETATM    5  C   UNL     1      -3.629  13.966  20.142  0.00  0.00     0.124 A 
HETATM    6  C   UNL     1      -2.893  13.788  21.296  0.00  0.00     0.022 A 
ENDROOT
BRANCH   1   7
HETATM    7  C   UNL     1      -3.696  13.255  23.744  0.00  0.00     0.029 A 
HETATM    8  C   UNL     1      -2.854  14.077  24.508  0.00  0.00     0.026 A 
HETATM    9  C   UNL     1      -2.546  13.773  25.845  0.00  0.00    -0.024 A 
HETATM   10  C   UNL     1      -3.154  12.659  26.431  0.00  0.00     0.074 A 
HETATM   11  C   UNL     1      -4.045  11.863  25.711  0.00  0.00     0.074 A 
HETATM   12  C   UNL     1      -4.314  12.169  24.380  0.00  0.00     0.081 A 
BRANCH   9  13
HETATM   13  C   UNL     1      -1.547  14.632  26.584  0.00  0.00     0.041 C 
BRANCH  13  14
HETATM   14  C   UNL     1      -0.485  15.270  25.683  0.00  0.00     0.000 C 
HETATM   15  C   UNL     1       0.784  15.645  26.435  0.00  0.00     0.005 C 
ENDBRANCH  13  14
ENDBRANCH   9  13
BRANCH  10  16
HETATM   16  O   UNL     1      -2.872  12.356  27.733  0.00  0.00    -0.360 OA
HETATM   17  H   UNL     1      -3.101  11.426  27.892  0.00  0.00     0.217 HD
ENDBRANCH  10  16
BRANCH  12  18
HETATM   18  O   UNL     1      -5.204  11.351  23.729  0.00  0.00    -0.360 OA
HETATM   19  H   UNL     1      -4.718  10.512  23.551  0.00  0.00     0.217 HD
ENDBRANCH  12  18
ENDBRANCH   1   7
BRANCH   6  20
HETATM   20  C   UNL     1      -1.431  13.846  21.326  0.00  0.00    -0.019 A 
HETATM   21  C   UNL     1      -0.655  12.686  21.179  0.00  0.00     0.015 A 
HETATM   22  C   UNL     1       0.743  12.754  21.177  0.00  0.00     0.040 A 
HETATM   23  C   UNL     1       1.381  13.984  21.298  0.00  0.00     0.102 A 
HETATM   24  C   UNL     1       0.622  15.142  21.470  0.00  0.00     0.102 A 
HETATM   25  O   UNL     1       2.750  13.983  21.253  0.00  0.00    -0.346 OA
HETATM   26  C   UNL     1      -0.771  15.070  21.499  0.00  0.00     0.052 A 
HETATM   27  O   UNL     1       1.172  16.392  21.597  0.00  0.00    -0.346 OA
HETATM   28  C   UNL     1       2.562  16.317  21.925  0.00  0.00     0.202 C 
HETATM   29  C   UNL     1       3.274  15.301  21.048  0.00  0.00     0.202 C 
ENDBRANCH   6  20
TORSDOF 6
ENDMDL
MODEL 2
REMARK VINA RESULT:    -7.492      1.801      2.292
REMARK INTER + INTRA:         -11.007
REMARK INTER:                  -9.548
REMARK INTRA:                  -1.459
REMARK UNBOUND:                -1.324
REMARK  6 active torsions:
REMARK  status: ('A' for Active; 'I' for Inactive)
REMARK    1  A    between atoms: C_2  and  C_3 
REMARK    2  A    between atoms: C_3  and  C_4 
REMARK    3  A    between atoms: C_6  and  C_7 
REMARK    4  A    between atoms: C_12  and  C_13 
REMARK    5  A    between atoms: C_23  and  O_24 
REMARK    6  A    between atoms: C_26  and  O_27 
ROOT
HETATM    1  C   UNL     1      -3.311  14.342  21.931  0.00  0.00     0.102 A 
HETATM    2  N   UNL     1      -4.505  14.415  21.309  0.00  0.00    -0.174 NA
HETATM    3  N   UNL     1      -4.419  15.514  20.546  0.00  0.00    -0.288 N 
HETATM    4  H   UNL     1      -5.231  15.788  20.002  0.00  0.00     0.188 HD
HETATM    5  C   UNL     1      -3.201  16.117  20.590  0.00  0.00     0.124 A 
HETATM    6  C   UNL     1      -2.429  15.378  21.463  0.00  0.00     0.022 A 
ENDROOT
BRANCH   1   7
HETATM    7  C   UNL     1      -3.059  13.261  22.894  0.00  0.00     0.029 A 
HETATM    8  C   UNL     1      -2.939  13.548  24.261  0.00  0.00     0.026 A 
HETATM    9  C   UNL     1      -2.554  12.564  25.187  0.00  0.00    -0.024 A 
HETATM   10  C   UNL     1      -2.357  11.258  24.727  0.00  0.00     0.074 A 
HETATM   11  C   UNL     1      -2.534  10.935  23.382  0.00  0.00     0.074 A 
HETATM   12  C   UNL     1      -2.889  11.932  22.479  0.00  0.00     0.081 A 
BRANCH   9  13
HETATM   13  C   UNL     1      -2.332  12.955  26.630  0.00  0.00     0.041 C 
BRANCH  13  14
HETATM   14  C   UNL     1      -1.677  14.328  26.810  0.00  0.00     0.000 C 
HETATM   15  C   UNL     1      -1.891  14.911  28.199  0.00  0.00     0.005 C 
ENDBRANCH  13  14
ENDBRANCH   9  13
BRANCH  10  16
HETATM   16  O   UNL     1      -1.992  10.288  25.618  0.00  0.00    -0.360 OA
HETATM   17  H   UNL     1      -2.060   9.424  25.180  0.00  0.00     0.217 HD
ENDBRANCH  10  16
BRANCH  12  18
HETATM   18  O   UNL     1      -3.053  11.548  21.172  0.00  0.00    -0.360 OA
HETATM   19  H   UNL     1      -3.811  12.078  20.828  0.00  0.00     0.217 HD
ENDBRANCH  12  18
ENDBRANCH   1   7
BRANCH   6  20
HETATM   20  C   UNL     1      -1.019  15.669  21.724  0.00  0.00    -0.019 A 
HETATM   21  C   UNL     1      -0.595  16.146  22.974  0.00  0.00     0.015 A 
HETATM   22  C   UNL     1       0.760  16.392  23.226  0.00  0.00     0.040 A 
HETATM   23  C   UNL     1       1.709  16.139  22.239  0.00  0.00     0.102 A 
HETATM   24  C   UNL     1       1.298  15.687  20.985  0.00  0.00     0.102 A 
HETATM   25  O   UNL     1       3.020  16.367  22.564  0.00  0.00    -0.346 OA
HETATM   26  C   UNL     1      -0.055  15.470  20.726  0.00  0.00     0.052 A 
HETATM   27  O   UNL     1       2.167  15.416  19.960  0.00  0.00    -0.346 OA
HETATM   28  C   UNL     1       3.446  16.012  20.191  0.00  0.00     0.202 C 
HETATM   29  C   UNL     1       3.911  15.765  21.617  0.00  0.00     0.202 C 
ENDBRANCH   6  20
TORSDOF 6
ENDMDL
MODEL 3
REMARK VINA RESULT:    -7.442      2.556      4.510
REMARK INTER + INTRA:         -10.942
REMARK INTER:                  -9.617
REMARK INTRA:                  -1.324
REMARK UNBOUND:                -1.324
REMARK  6 active torsions:
REMARK  status: ('A' for Active; 'I' for Inactive)
REMARK    1  A    between atoms: C_2  and  C_3 
REMARK    2  A    between atoms: C_3  and  C_4 
REMARK    3  A    between atoms: C_6  and  C_7 
REMARK    4  A    between atoms: C_12  and  C_13 
REMARK    5  A    between atoms: C_23  and  O_24 
REMARK    6  A    between atoms: C_26  and  O_27 
ROOT
HETATM    1  C   UNL     1      -1.187  14.651  26.183  0.00  0.00     0.102 A 
HETATM    2  N   UNL     1      -1.435  14.903  27.485  0.00  0.00    -0.174 NA
HETATM    3  N   UNL     1      -0.353  15.573  27.908  0.00  0.00    -0.288 N 
HETATM    4  H   UNL     1      -0.306  15.843  28.886  0.00  0.00     0.188 HD
HETATM    5  C   UNL     1       0.552  15.829  26.926  0.00  0.00     0.124 A 
HETATM    6  C   UNL     1       0.046  15.269  25.771  0.00  0.00     0.022 A 
ENDROOT
BRANCH   1   7
HETATM    7  C   UNL     1      -2.161  13.885  25.394  0.00  0.00     0.029 A 
HETATM    8  C   UNL     1      -2.772  14.465  24.273  0.00  0.00     0.026 A 
HETATM    9  C   UNL     1      -3.811  13.815  23.584  0.00  0.00    -0.024 A 
HETATM   10  C   UNL     1      -4.185  12.534  24.000  0.00  0.00     0.074 A 
HETATM   11  C   UNL     1      -3.548  11.910  25.072  0.00  0.00     0.074 A 
HETATM   12  C   UNL     1      -2.540  12.584  25.756  0.00  0.00     0.081 A 
BRANCH   9  13
HETATM   13  C   UNL     1      -4.507  14.534  22.452  0.00  0.00     0.041 C 
BRANCH  13  14
HETATM   14  C   UNL     1      -3.609  14.811  21.243  0.00  0.00     0.000 C 
HETATM   15  C   UNL     1      -3.895  16.153  20.586  0.00  0.00     0.005 C 
ENDBRANCH  13  14
ENDBRANCH   9  13
BRANCH  10  16
HETATM   16  O   UNL     1      -5.187  11.886  23.335  0.00  0.00    -0.360 OA
HETATM   17  H   UNL     1      -5.933  11.759  23.944  0.00  0.00     0.217 HD
ENDBRANCH  10  16
BRANCH  12  18
HETATM   18  O   UNL     1      -1.948  11.914  26.798  0.00  0.00    -0.360 OA
HETATM   19  H   UNL     1      -2.601  11.935  27.536  0.00  0.00     0.217 HD
ENDBRANCH  12  18
ENDBRANCH   1   7
BRANCH   6  20
HETATM   20  C   UNL     1       0.700  15.396  24.469  0.00  0.00    -0.019 A 
HETATM   21  C   UNL     1       0.100  16.112  23.421  0.00  0.00     0.015 A 
HETATM   22  C   UNL     1       0.748  16.256  22.188  0.00  0.00     0.040 A 
HETATM   23  C   UNL     1       2.012  15.707  21.997  0.00  0.00     0.102 A 
HETATM   24  C   UNL     1       2.609  14.973  23.022  0.00  0.00     0.102 A 
HETATM   25  O   UNL     1       2.603  15.916  20.778  0.00  0.00    -0.346 OA
HETATM   26  C   UNL     1       1.951  14.806  24.240  0.00  0.00     0.052 A 
HETATM   27  O   UNL     1       3.850  14.400  22.914  0.00  0.00    -0.346 OA
HETATM   28  C   UNL     1       4.263  14.306  21.548  0.00  0.00     0.202 C 
HETATM   29  C   UNL     1       4.003  15.610  20.811  0.00  0.00     0.202 C 
ENDBRANCH   6  20
TORSDOF 6
ENDMDL
MODEL 4
REMARK VINA RESULT:    -7.389      3.563      5.399
REMARK INTER + INTRA:         -10.873
REMARK INTER:                  -9.528
REMARK INTRA:                  -1.345
REMARK UNBOUND:                -1.324
REMARK  6 active torsions:
REMARK  status: ('A' for Active; 'I' for Inactive)
REMARK    1  A    between atoms: C_2  and  C_3 
REMARK    2  A    between atoms: C_3  and  C_4 
REMARK    3  A    between atoms: C_6  and  C_7 
REMARK    4  A    between atoms: C_12  and  C_13 
REMARK    5  A    between atoms: C_23  and  O_24 
REMARK    6  A    between atoms: C_26  and  O_27 
ROOT
HETATM    1  C   UNL     1      -3.409  12.554  25.038  0.00  0.00     0.102 A 
HETATM    2  N   UNL     1      -4.555  12.870  25.676  0.00  0.00    -0.174 NA
HETATM    3  N   UNL     1      -4.783  11.830  26.490  0.00  0.00    -0.288 N 
HETATM    4  H   UNL     1      -5.626  11.837  27.056  0.00  0.00     0.188 HD
HETATM    5  C   UNL     1      -3.803  10.888  26.463  0.00  0.00     0.124 A 
HETATM    6  C   UNL     1      -2.867  11.322  25.547  0.00  0.00     0.022 A 
ENDROOT
BRANCH   1   7
HETATM    7  C   UNL     1      -2.868  13.466  24.022  0.00  0.00     0.029 A 
HETATM    8  C   UNL     1      -1.646  14.118  24.239  0.00  0.00     0.026 A 
HETATM    9  C   UNL     1      -1.173  15.104  23.356  0.00  0.00    -0.024 A 
HETATM   10  C   UNL     1      -1.919  15.381  22.206  0.00  0.00     0.074 A 
HETATM   11  C   UNL     1      -3.105  14.699  21.936  0.00  0.00     0.074 A 
HETATM   12  C   UNL     1      -3.567  13.746  22.838  0.00  0.00     0.081 A 
BRANCH   9  13
HETATM   13  C   UNL     1       0.095  15.852  23.698  0.00  0.00     0.041 C 
BRANCH  13  14
HETATM   14  C   UNL     1       0.829  15.307  24.926  0.00  0.00     0.000 C 
HETATM   15  C   UNL     1       2.117  14.577  24.572  0.00  0.00     0.005 C 
ENDBRANCH  13  14
ENDBRANCH   9  13
BRANCH  10  16
HETATM   16  O   UNL     1      -1.466  16.331  21.334  0.00  0.00    -0.360 OA
HETATM   17  H   UNL     1      -2.219  16.875  21.050  0.00  0.00     0.217 HD
ENDBRANCH  10  16
BRANCH  12  18
HETATM   18  O   UNL     1      -4.737  13.107  22.512  0.00  0.00    -0.360 OA
HETATM   19  H   UNL     1      -4.915  13.335  21.570  0.00  0.00     0.217 HD
ENDBRANCH  12  18
ENDBRANCH   1   7
BRANCH   6  20
HETATM   20  C   UNL     1      -1.616  10.610  25.286  0.00  0.00    -0.019 A 
HETATM   21  C   UNL     1      -1.186  10.355  23.974  0.00  0.00     0.015 A 
HETATM   22  C   UNL     1       0.028   9.700  23.733  0.00  0.00     0.040 A 
HETATM   23  C   UNL     1       0.837   9.317  24.798  0.00  0.00     0.102 A 
HETATM   24  C   UNL     1       0.410   9.543  26.107  0.00  0.00     0.102 A 
HETATM   25  O   UNL     1       2.028   8.714  24.489  0.00  0.00    -0.346 OA
HETATM   26  C   UNL     1      -0.813  10.169  26.347  0.00  0.00     0.052 A 
HETATM   27  O   UNL     1       1.145   9.195  27.210  0.00  0.00    -0.346 OA
HETATM   28  C   UNL     1       2.167   8.252  26.878  0.00  0.00     0.202 C 
HETATM   29  C   UNL     1       2.908   8.674  25.620  0.00  0.00     0.202 C 
ENDBRANCH   6  20
TORSDOF 6
ENDMDL
MODEL 5
REMARK VINA RESULT:    -7.382      2.443      4.148
REMARK INTER + INTRA:         -10.864
REMARK INTER:                  -9.498
REMARK INTRA:                  -1.365
REMARK UNBOUND:                -1.324
REMARK  6 active torsions:
REMARK  status: ('A' for Active; 'I' for Inactive)
REMARK    1  A    between atoms: C_2  and  C_3 
REMARK    2  A    between atoms: C_3  and  C_4 
REMARK    3  A    between atoms: C_6  and  C_7 
REMARK    4  A    between atoms: C_12  and  C_13 
REMARK    5  A    between atoms: C_23  and  O_24 
REMARK    6  A    between atoms: C_26  and  O_27 
ROOT
HETATM    1  C   UNL     1      -1.861  11.593  23.207  0.00  0.00     0.102 A 
HETATM    2  N   UNL     1      -2.317  10.393  23.621  0.00  0.00    -0.174 NA
HETATM    3  N   UNL     1      -1.211   9.659  23.803  0.00  0.00    -0.288 N 
HETATM    4  H   UNL     1      -1.317   8.691  24.090  0.00  0.00     0.188 HD
HETATM    5  C   UNL     1      -0.056  10.347  23.596  0.00  0.00     0.124 A 
HETATM    6  C   UNL     1      -0.422  11.625  23.226  0.00  0.00     0.022 A 
ENDROOT
BRANCH   1   7
HETATM    7  C   UNL     1      -2.817  12.656  22.869  0.00  0.00     0.029 A 
HETATM    8  C   UNL     1      -2.870  13.168  21.564  0.00  0.00     0.026 A 
HETATM    9  C   UNL     1      -3.666  14.281  21.244  0.00  0.00    -0.024 A 
HETATM   10  C   UNL     1      -4.469  14.835  22.246  0.00  0.00     0.074 A 
HETATM   11  C   UNL     1      -4.482  14.303  23.534  0.00  0.00     0.074 A 
HETATM   12  C   UNL     1      -3.664  13.217  23.835  0.00  0.00     0.081 A 
BRANCH   9  13
HETATM   13  C   UNL     1      -3.599  14.858  19.849  0.00  0.00     0.041 C 
BRANCH  13  14
HETATM   14  C   UNL     1      -3.024  16.276  19.788  0.00  0.00     0.000 C 
HETATM   15  C   UNL     1      -1.658  16.391  20.450  0.00  0.00     0.005 C 
ENDBRANCH  13  14
ENDBRANCH   9  13
BRANCH  10  16
HETATM   16  O   UNL     1      -5.256  15.911  21.946  0.00  0.00    -0.360 OA
HETATM   17  H   UNL     1      -6.067  15.592  21.518  0.00  0.00     0.217 HD
ENDBRANCH  10  16
BRANCH  12  18
HETATM   18  O   UNL     1      -3.728  12.737  25.119  0.00  0.00    -0.360 OA
HETATM   19  H   UNL     1      -2.814  12.814  25.482  0.00  0.00     0.217 HD
ENDBRANCH  12  18
ENDBRANCH   1   7
BRANCH   6  20
HETATM   20  C   UNL     1       0.546  12.695  22.986  0.00  0.00    -0.019 A 
HETATM   21  C   UNL     1       1.152  13.379  24.052  0.00  0.00     0.015 A 
HETATM   22  C   UNL     1       2.102  14.380  23.814  0.00  0.00     0.040 A 
HETATM   23  C   UNL     1       2.475  14.691  22.510  0.00  0.00     0.102 A 
HETATM   24  C   UNL     1       1.863  14.035  21.441  0.00  0.00     0.102 A 
HETATM   25  O   UNL     1       3.435  15.655  22.351  0.00  0.00    -0.346 OA
HETATM   26  C   UNL     1       0.896  13.058  21.678  0.00  0.00     0.052 A 
HETATM   27  O   UNL     1       2.172  14.283  20.129  0.00  0.00    -0.346 OA
HETATM   28  C   UNL     1       2.870  15.523  19.984  0.00  0.00     0.202 C 
HETATM   29  C   UNL     1       3.972  15.650  21.022  0.00  0.00     0.202 C 
ENDBRANCH   6  20
TORSDOF 6
ENDMDL
MODEL 6
REMARK VINA RESULT:    -7.333      3.390      6.213
REMARK INTER + INTRA:         -10.801
REMARK INTER:                  -9.542
REMARK INTRA:                  -1.259
REMARK UNBOUND:                -1.324
REMARK  6 active torsions:
REMARK  status: ('A' for Active; 'I' for Inactive)
REMARK    1  A    between atoms: C_2  and  C_3 
REMARK    2  A    between atoms: C_3  and  C_4 
REMARK    3  A    between atoms: C_6  and  C_7 
REMARK    4  A    between atoms: C_12  and  C_13 
REMARK    5  A    between atoms: C_23  and  O_24 
REMARK    6  A    between atoms: C_26  and  O_27 
ROOT
HETATM    1  C   UNL     1      -2.828  11.917  23.375  0.00  0.00     0.102 A 
HETATM    2  N   UNL     1      -3.990  12.411  22.903  0.00  0.00    -0.174 NA
HETATM    3  N   UNL     1      -4.926  11.897  23.713  0.00  0.00    -0.288 N 
HETATM    4  H   UNL     1      -5.900  12.114  23.523  0.00  0.00     0.188 HD
HETATM    5  C   UNL     1      -4.420  11.150  24.731  0.00  0.00     0.124 A 
HETATM    6  C   UNL     1      -3.050  11.149  24.572  0.00  0.00     0.022 A 
ENDROOT
BRANCH   1   7
HETATM    7  C   UNL     1      -1.568  12.246  22.694  0.00  0.00     0.029 A 
HETATM    8  C   UNL     1      -0.637  13.097  23.306  0.00  0.00     0.026 A 
HETATM    9  C   UNL     1       0.506  13.548  22.624  0.00  0.00    -0.024 A 
HETATM   10  C   UNL     1       0.738  13.072  21.329  0.00  0.00     0.074 A 
HETATM   11  C   UNL     1      -0.140  12.174  20.724  0.00  0.00     0.074 A 
HETATM   12  C   UNL     1      -1.280  11.763  21.409  0.00  0.00     0.081 A 
BRANCH   9  13
HETATM   13  C   UNL     1       1.416  14.551  23.293  0.00  0.00     0.041 C 
BRANCH  13  14
HETATM   14  C   UNL     1       2.692  13.941  23.881  0.00  0.00     0.000 C 
HETATM   15  C   UNL     1       3.959  14.461  23.219  0.00  0.00     0.005 C 
ENDBRANCH  13  14
ENDBRANCH   9  13
BRANCH  10  16
HETATM   16  O   UNL     1       1.851  13.494  20.657  0.00  0.00    -0.360 OA
HETATM   17  H   UNL     1       2.057  14.401  20.937  0.00  0.00     0.217 HD
ENDBRANCH  10  16
BRANCH  12  18
HETATM   18  O   UNL     1      -2.100  10.875  20.761  0.00  0.00    -0.360 OA
HETATM   19  H   UNL     1      -2.086  11.137  19.811  0.00  0.00     0.217 HD
ENDBRANCH  12  18
ENDBRANCH   1   7
BRANCH   6  20
HETATM   20  C   UNL     1      -2.137  10.508  25.519  0.00  0.00    -0.019 A 
HETATM   21  C   UNL     1      -2.305  10.659  26.904  0.00  0.00     0.015 A 
HETATM   22  C   UNL     1      -1.446  10.017  27.805  0.00  0.00     0.040 A 
HETATM   23  C   UNL     1      -0.426   9.197  27.331  0.00  0.00     0.102 A 
HETATM   24  C   UNL     1      -0.234   9.057  25.956  0.00  0.00     0.102 A 
HETATM   25  O   UNL     1       0.355   8.571  28.266  0.00  0.00    -0.346 OA
HETATM   26  C   UNL     1      -1.073   9.720  25.060  0.00  0.00     0.052 A 
HETATM   27  O   UNL     1       0.746   8.271  25.408  0.00  0.00    -0.346 OA
HETATM   28  C   UNL     1       1.754   7.950  26.371  0.00  0.00     0.202 C 
HETATM   29  C   UNL     1       1.129   7.514  27.686  0.00  0.00     0.202 C 
ENDBRANCH   6  20
TORSDOF 6
ENDMDL
MODEL 7
REMARK VINA RESULT:    -7.333      3.501      5.894
REMARK INTER + INTRA:         -10.801
REMARK INTER:                  -9.486
REMARK INTRA:                  -1.315
REMARK UNBOUND:                -1.324
REMARK  6 active torsions:
REMARK  status: ('A' for Active; 'I' for Inactive)
REMARK    1  A    between atoms: C_2  and  C_3 
REMARK    2  A    between atoms: C_3  and  C_4 
REMARK    3  A    between atoms: C_6  and  C_7 
REMARK    4  A    between atoms: C_12  and  C_13 
REMARK    5  A    between atoms: C_23  and  O_24 
REMARK    6  A    between atoms: C_26  and  O_27 
ROOT
HETATM    1  C   UNL     1      -3.370  12.717  25.155  0.00  0.00     0.102 A 
HETATM    2  N   UNL     1      -4.553  12.990  25.743  0.00  0.00    -0.174 NA
HETATM    3  N   UNL     1      -4.877  11.858  26.383  0.00  0.00    -0.288 N 
HETATM    4  H   UNL     1      -5.762  11.822  26.879  0.00  0.00     0.188 HD
HETATM    5  C   UNL     1      -3.928  10.888  26.298  0.00  0.00     0.124 A 
HETATM    6  C   UNL     1      -2.908  11.405  25.524  0.00  0.00     0.022 A 
ENDROOT
BRANCH   1   7
HETATM    7  C   UNL     1      -2.722  13.738  24.320  0.00  0.00     0.029 A 
HETATM    8  C   UNL     1      -2.889  13.720  22.928  0.00  0.00     0.026 A 
HETATM    9  C   UNL     1      -2.168  14.589  22.091  0.00  0.00    -0.024 A 
HETATM   10  C   UNL     1      -1.321  15.532  22.681  0.00  0.00     0.074 A 
HETATM   11  C   UNL     1      -1.188  15.612  24.067  0.00  0.00     0.074 A 
HETATM   12  C   UNL     1      -1.891  14.722  24.875  0.00  0.00     0.081 A 
BRANCH   9  13
HETATM   13  C   UNL     1      -2.304  14.450  20.592  0.00  0.00     0.041 C 
BRANCH  13  14
HETATM   14  C   UNL     1      -3.669  14.882  20.047  0.00  0.00     0.000 C 
HETATM   15  C   UNL     1      -3.864  16.392  20.063  0.00  0.00     0.005 C 
ENDBRANCH  13  14
ENDBRANCH   9  13
BRANCH  10  16
HETATM   16  O   UNL     1      -0.621  16.390  21.880  0.00  0.00    -0.360 OA
HETATM   17  H   UNL     1      -0.255  15.888  21.134  0.00  0.00     0.217 HD
ENDBRANCH  10  16
BRANCH  12  18
HETATM   18  O   UNL     1      -1.722  14.856  26.230  0.00  0.00    -0.360 OA
HETATM   19  H   UNL     1      -2.159  14.072  26.636  0.00  0.00     0.217 HD
ENDBRANCH  12  18
ENDBRANCH   1   7
BRANCH   6  20
HETATM   20  C   UNL     1      -1.662  10.685  25.261  0.00  0.00    -0.019 A 
HETATM   21  C   UNL     1      -1.243  10.416  23.948  0.00  0.00     0.015 A 
HETATM   22  C   UNL     1      -0.034   9.754  23.704  0.00  0.00     0.040 A 
HETATM   23  C   UNL     1       0.781   9.376  24.767  0.00  0.00     0.102 A 
HETATM   24  C   UNL     1       0.365   9.616  26.076  0.00  0.00     0.102 A 
HETATM   25  O   UNL     1       1.967   8.764  24.455  0.00  0.00    -0.346 OA
HETATM   26  C   UNL     1      -0.854  10.250  26.320  0.00  0.00     0.052 A 
HETATM   27  O   UNL     1       1.106   9.274  27.177  0.00  0.00    -0.346 OA
HETATM   28  C   UNL     1       2.121   8.323  26.846  0.00  0.00     0.202 C 
HETATM   29  C   UNL     1       2.855   8.730  25.579  0.00  0.00     0.202 C 
ENDBRANCH   6  20
TORSDOF 6
ENDMDL
MODEL 8
REMARK VINA RESULT:    -7.271      2.181      2.955
REMARK INTER + INTRA:         -10.721
REMARK INTER:                  -9.361
REMARK INTRA:                  -1.360
REMARK UNBOUND:                -1.324
REMARK  6 active torsions:
REMARK  status: ('A' for Active; 'I' for Inactive)
REMARK    1  A    between atoms: C_2  and  C_3 
REMARK    2  A    between atoms: C_3  and  C_4 
REMARK    3  A    between atoms: C_6  and  C_7 
REMARK    4  A    between atoms: C_12  and  C_13 
REMARK    5  A    between atoms: C_23  and  O_24 
REMARK    6  A    between atoms: C_26  and  O_27 
ROOT
HETATM    1  C   UNL     1      -3.357  12.940  23.241  0.00  0.00     0.102 A 
HETATM    2  N   UNL     1      -4.577  12.668  22.735  0.00  0.00    -0.174 NA
HETATM    3  N   UNL     1      -4.713  13.520  21.709  0.00  0.00    -0.288 N 
HETATM    4  H   UNL     1      -5.586  13.515  21.191  0.00  0.00     0.188 HD
HETATM    5  C   UNL     1      -3.610  14.283  21.481  0.00  0.00     0.124 A 
HETATM    6  C   UNL     1      -2.683  13.928  22.440  0.00  0.00     0.022 A 
ENDROOT
BRANCH   1   7
HETATM    7  C   UNL     1      -2.881  12.208  24.422  0.00  0.00     0.029 A 
HETATM    8  C   UNL     1      -1.610  11.616  24.420  0.00  0.00     0.026 A 
HETATM    9  C   UNL     1      -1.183  10.789  25.472  0.00  0.00    -0.024 A 
HETATM   10  C   UNL     1      -2.032  10.618  26.571  0.00  0.00     0.074 A 
HETATM   11  C   UNL     1      -3.274  11.250  26.625  0.00  0.00     0.074 A 
HETATM   12  C   UNL     1      -3.686  12.043  25.558  0.00  0.00     0.081 A 
BRANCH   9  13
HETATM   13  C   UNL     1       0.151  10.088  25.365  0.00  0.00     0.041 C 
BRANCH  13  14
HETATM   14  C   UNL     1       0.602   9.823  23.925  0.00  0.00     0.000 C 
HETATM   15  C   UNL     1       1.200   8.436  23.736  0.00  0.00     0.005 C 
ENDBRANCH  13  14
ENDBRANCH   9  13
BRANCH  10  16
HETATM   16  O   UNL     1      -1.626   9.824  27.606  0.00  0.00    -0.360 OA
HETATM   17  H   UNL     1      -2.334   9.190  27.806  0.00  0.00     0.217 HD
ENDBRANCH  10  16
BRANCH  12  18
HETATM   18  O   UNL     1      -4.916  12.641  25.676  0.00  0.00    -0.360 OA
HETATM   19  H   UNL     1      -4.742  13.553  26.006  0.00  0.00     0.217 HD
ENDBRANCH  12  18
ENDBRANCH   1   7
BRANCH   6  20
HETATM   20  C   UNL     1      -1.329  14.480  22.484  0.00  0.00    -0.019 A 
HETATM   21  C   UNL     1      -1.014  15.564  23.317  0.00  0.00     0.015 A 
HETATM   22  C   UNL     1       0.292  16.067  23.376  0.00  0.00     0.040 A 
HETATM   23  C   UNL     1       1.302  15.475  22.623  0.00  0.00     0.102 A 
HETATM   24  C   UNL     1       0.996  14.411  21.773  0.00  0.00     0.102 A 
HETATM   25  O   UNL     1       2.563  15.993  22.756  0.00  0.00    -0.346 OA
HETATM   26  C   UNL     1      -0.311  13.930  21.693  0.00  0.00     0.052 A 
HETATM   27  O   UNL     1       1.930  13.775  20.998  0.00  0.00    -0.346 OA
HETATM   28  C   UNL     1       3.119  14.558  20.867  0.00  0.00     0.202 C 
HETATM   29  C   UNL     1       3.555  15.113  22.213  0.00  0.00     0.202 C 
ENDBRANCH   6  20
TORSDOF 6
ENDMDL
MODEL 9
REMARK VINA RESULT:    -7.212      3.556      6.054
REMARK INTER + INTRA:         -10.645
REMARK INTER:                  -9.135
REMARK INTRA:                  -1.510
REMARK UNBOUND:                -1.324
REMARK  6 active torsions:
REMARK  status: ('A' for Active; 'I' for Inactive)
REMARK    1  A    between atoms: C_2  and  C_3 
REMARK    2  A    between atoms: C_3  and  C_4 
REMARK    3  A    between atoms: C_6  and  C_7 
REMARK    4  A    between atoms: C_12  and  C_13 
REMARK    5  A    between atoms: C_23  and  O_24 
REMARK    6  A    between atoms: C_26  and  O_27 
ROOT
HETATM    1  C   UNL     1      -2.990  12.820  25.141  0.00  0.00     0.102 A 
HETATM    2  N   UNL     1      -4.247  13.248  25.381  0.00  0.00    -0.174 NA
HETATM    3  N   UNL     1      -4.913  12.142  25.742  0.00  0.00    -0.288 N 
HETATM    4  H   UNL     1      -5.905  12.222  25.943  0.00  0.00     0.188 HD
HETATM    5  C   UNL     1      -4.133  11.031  25.815  0.00  0.00     0.124 A 
HETATM    6  C   UNL     1      -2.859  11.422  25.455  0.00  0.00     0.022 A 
ENDROOT
BRANCH   1   7
HETATM    7  C   UNL     1      -1.975  13.776  24.678  0.00  0.00     0.029 A 
HETATM    8  C   UNL     1      -1.535  13.748  23.347  0.00  0.00     0.026 A 
HETATM    9  C   UNL     1      -0.465  14.547  22.910  0.00  0.00    -0.024 A 
HETATM   10  C   UNL     1       0.120  15.432  23.821  0.00  0.00     0.074 A 
HETATM   11  C   UNL     1      -0.343  15.525  25.133  0.00  0.00     0.074 A 
HETATM   12  C   UNL     1      -1.387  14.704  25.550  0.00  0.00     0.081 A 
BRANCH   9  13
HETATM   13  C   UNL     1       0.039  14.394  21.493  0.00  0.00     0.041 C 
BRANCH  13  14
HETATM   14  C   UNL     1       1.026  13.238  21.303  0.00  0.00     0.000 C 
HETATM   15  C   UNL     1       0.360  11.967  20.796  0.00  0.00     0.005 C 
ENDBRANCH  13  14
ENDBRANCH   9  13
BRANCH  10  16
HETATM   16  O   UNL     1       1.155  16.222  23.407  0.00  0.00    -0.360 OA
HETATM   17  H   UNL     1       1.232  16.976  24.015  0.00  0.00     0.217 HD
ENDBRANCH  10  16
BRANCH  12  18
HETATM   18  O   UNL     1      -1.800  14.847  26.851  0.00  0.00    -0.360 OA
HETATM   19  H   UNL     1      -1.225  15.546  27.241  0.00  0.00     0.217 HD
ENDBRANCH  12  18
ENDBRANCH   1   7
BRANCH   6  20
HETATM   20  C   UNL     1      -1.710  10.518  25.481  0.00  0.00    -0.019 A 
HETATM   21  C   UNL     1      -1.206   9.950  24.300  0.00  0.00     0.015 A 
HETATM   22  C   UNL     1      -0.085   9.110  24.330  0.00  0.00     0.040 A 
HETATM   23  C   UNL     1       0.559   8.850  25.536  0.00  0.00     0.102 A 
HETATM   24  C   UNL     1       0.054   9.390  26.719  0.00  0.00     0.102 A 
HETATM   25  O   UNL     1       1.669   8.050  25.488  0.00  0.00    -0.346 OA
HETATM   26  C   UNL     1      -1.079  10.203  26.693  0.00  0.00     0.052 A 
HETATM   27  O   UNL     1       0.627   9.181  27.947  0.00  0.00    -0.346 OA
HETATM   28  C   UNL     1       1.523   8.068  27.920  0.00  0.00     0.202 C 
HETATM   29  C   UNL     1       2.429   8.128  26.701  0.00  0.00     0.202 C 
ENDBRANCH   6  20
TORSDOF 6
ENDMDL
