MODEL 1
REMARK VINA RESULT:    -7.367      0.000      0.000
REMARK INTER + INTRA:         -10.663
REMARK INTER:                  -9.655
REMARK INTRA:                  -1.007
REMARK UNBOUND:                -0.927
REMARK  6 active torsions:
REMARK  status: ('A' for Active; 'I' for Inactive)
REMARK    1  A    between atoms: C_2  and  C_3 
REMARK    2  A    between atoms: C_3  and  C_5 
REMARK    3  A    between atoms: C_12  and  C_16 
REMARK    4  A    between atoms: C_13  and  O_15 
REMARK       I    between atoms: C_16  and  N_18 
REMARK    5  A    between atoms: N_18  and  C_20 
REMARK    6  A    between atoms: C_23  and  N_26 
ROOT
HETATM    1  C   UNL     1       3.015   6.986  18.097  0.00  0.00     0.135 A 
HETATM    2  N   UNL     1       3.696   6.421  17.081  0.00  0.00    -0.170 NA
HETATM    3  N   UNL     1       4.802   5.926  17.656  0.00  0.00    -0.277 N 
HETATM    4  H   UNL     1       5.486   5.467  17.065  0.00  0.00     0.189 HD
HETATM    5  C   UNL     1       3.700   6.797  19.340  0.00  0.00     0.027 A 
HETATM    6  C   UNL     1       4.883   6.151  19.002  0.00  0.00     0.065 A 
HETATM    7  C   UNL     1       3.487   7.127  20.696  0.00  0.00     0.036 C 
HETATM    8  C   UNL     1       4.487   6.874  21.667  0.00  0.00     0.066 C 
HETATM    9  C   UNL     1       5.707   6.337  21.236  0.00  0.00     0.083 C 
HETATM   10  C   UNL     1       5.899   5.890  19.923  0.00  0.00     0.069 C 
ENDROOT
BRANCH   8  11
HETATM   11  C   UNL     1       4.179   7.364  23.045  0.00  0.00     0.260 C 
HETATM   12  O   UNL     1       4.442   8.560  23.215  0.00  0.00    -0.267 OA
HETATM   13  N   UNL     1       3.641   6.546  24.067  0.00  0.00    -0.318 N 
HETATM   14  C   UNL     1       3.511   5.090  23.993  0.00  0.00     0.159 C 
BRANCH  13  15
HETATM   15  C   UNL     1       3.208   7.155  25.305  0.00  0.00     0.037 A 
HETATM   16  C   UNL     1       3.915   6.946  26.491  0.00  0.00     0.032 A 
HETATM   17  C   UNL     1       3.477   7.489  27.706  0.00  0.00     0.031 A 
HETATM   18  C   UNL     1       2.314   8.259  27.808  0.00  0.00     0.030 A 
HETATM   19  C   UNL     1       1.650   8.526  26.602  0.00  0.00     0.031 A 
HETATM   20  C   UNL     1       2.091   7.993  25.369  0.00  0.00     0.032 A 
BRANCH  18  21
HETATM   21  N   UNL     1       1.865   8.706  29.032  0.00  0.00    -0.377 N 
HETATM   22  C   UNL     1       0.449   8.819  29.412  0.00  0.00     0.149 C 
HETATM   23  C   UNL     1       0.150   7.941  30.637  0.00  0.00     0.187 C 
HETATM   24  O   UNL     1       1.033   8.241  31.733  0.00  0.00    -0.388 OA
HETATM   25  C   UNL     1       2.396   8.016  31.343  0.00  0.00     0.187 C 
HETATM   26  C   UNL     1       2.803   8.904  30.153  0.00  0.00     0.149 C 
ENDBRANCH  18  21
ENDBRANCH  13  15
ENDBRANCH   8  11
BRANCH   9  27
HETATM   27  O   UNL     1       6.831   6.288  22.016  0.00  0.00    -0.360 OA
HETATM   28  H   UNL     1       7.598   6.249  21.418  0.00  0.00     0.217 HD
ENDBRANCH   9  27
BRANCH   1  29
HETATM   29  C   UNL     1       1.758   7.716  17.863  0.00  0.00     0.180 C 
HETATM   30  O   UNL     1       1.721   8.947  17.852  0.00  0.00    -0.291 OA
BRANCH  29  31
HETATM   31  C   UNL     1       0.505   6.879  17.621  0.00  0.00     0.081 C 
HETATM   32  C   UNL     1       0.305   5.794  18.667  0.00  0.00     0.013 C 
ENDBRANCH  29  31
ENDBRANCH   1  29
TORSDOF 6
ENDMDL
MODEL 2
REMARK VINA RESULT:    -7.128      1.157      1.598
REMARK INTER + INTRA:         -10.347
REMARK INTER:                  -9.307
REMARK INTRA:                  -1.040
REMARK UNBOUND:                -0.927
REMARK  6 active torsions:
REMARK  status: ('A' for Active; 'I' for Inactive)
REMARK    1  A    between atoms: C_2  and  C_3 
REMARK    2  A    between atoms: C_3  and  C_5 
REMARK    3  A    between atoms: C_12  and  C_16 
REMARK    4  A    between atoms: C_13  and  O_15 
REMARK       I    between atoms: C_16  and  N_18 
REMARK    5  A    between atoms: N_18  and  C_20 
REMARK    6  A    between atoms: C_23  and  N_26 
ROOT
HETATM    1  C   UNL     1       1.881   5.860  17.947  0.00  0.00     0.135 A 
HETATM    2  N   UNL     1       2.510   5.639  16.776  0.00  0.00    -0.170 NA
HETATM    3  N   UNL     1       3.800   5.897  17.038  0.00  0.00    -0.277 N 
HETATM    4  H   UNL     1       4.470   5.818  16.280  0.00  0.00     0.189 HD
HETATM    5  C   UNL     1       2.814   6.225  18.969  0.00  0.00     0.027 A 
HETATM    6  C   UNL     1       4.044   6.291  18.324  0.00  0.00     0.065 A 
HETATM    7  C   UNL     1       2.766   6.547  20.343  0.00  0.00     0.036 C 
HETATM    8  C   UNL     1       3.926   6.997  21.021  0.00  0.00     0.066 C 
HETATM    9  C   UNL     1       5.103   7.162  20.280  0.00  0.00     0.083 C 
HETATM   10  C   UNL     1       5.210   6.737  18.950  0.00  0.00     0.069 C 
ENDROOT
BRANCH   8  11
HETATM   11  C   UNL     1       3.717   7.404  22.444  0.00  0.00     0.260 C 
HETATM   12  O   UNL     1       3.858   8.616  22.638  0.00  0.00    -0.267 OA
HETATM   13  N   UNL     1       3.392   6.494  23.479  0.00  0.00    -0.318 N 
HETATM   14  C   UNL     1       3.423   5.037  23.355  0.00  0.00     0.159 C 
BRANCH  13  15
HETATM   15  C   UNL     1       3.031   7.008  24.782  0.00  0.00     0.037 A 
HETATM   16  C   UNL     1       1.807   7.648  24.985  0.00  0.00     0.032 A 
HETATM   17  C   UNL     1       1.467   8.195  26.230  0.00  0.00     0.031 A 
HETATM   18  C   UNL     1       2.326   8.141  27.332  0.00  0.00     0.030 A 
HETATM   19  C   UNL     1       3.522   7.434  27.142  0.00  0.00     0.031 A 
HETATM   20  C   UNL     1       3.868   6.867  25.893  0.00  0.00     0.032 A 
BRANCH  18  21
HETATM   21  N   UNL     1       1.999   8.764  28.517  0.00  0.00    -0.377 N 
HETATM   22  C   UNL     1       0.627   9.050  28.960  0.00  0.00     0.149 C 
HETATM   23  C   UNL     1       0.336   8.349  30.296  0.00  0.00     0.187 C 
HETATM   24  O   UNL     1       1.312   8.689  31.297  0.00  0.00    -0.388 OA
HETATM   25  C   UNL     1       2.623   8.296  30.860  0.00  0.00     0.187 C 
HETATM   26  C   UNL     1       3.023   9.001  29.552  0.00  0.00     0.149 C 
ENDBRANCH  18  21
ENDBRANCH  13  15
ENDBRANCH   8  11
BRANCH   9  27
HETATM   27  O   UNL     1       6.205   7.827  20.746  0.00  0.00    -0.360 OA
HETATM   28  H   UNL     1       5.948   8.755  20.884  0.00  0.00     0.217 HD
ENDBRANCH   9  27
BRANCH   1  29
HETATM   29  C   UNL     1       0.416   5.755  18.059  0.00  0.00     0.180 C 
HETATM   30  O   UNL     1      -0.333   6.475  17.398  0.00  0.00    -0.291 OA
BRANCH  29  31
HETATM   31  C   UNL     1      -0.131   4.705  19.021  0.00  0.00     0.081 C 
HETATM   32  C   UNL     1       0.442   3.318  18.775  0.00  0.00     0.013 C 
ENDBRANCH  29  31
ENDBRANCH   1  29
TORSDOF 6
ENDMDL
MODEL 3
REMARK VINA RESULT:    -6.878      2.207     10.099
REMARK INTER + INTRA:         -10.016
REMARK INTER:                  -9.593
REMARK INTRA:                  -0.423
REMARK UNBOUND:                -0.927
REMARK  6 active torsions:
REMARK  status: ('A' for Active; 'I' for Inactive)
REMARK    1  A    between atoms: C_2  and  C_3 
REMARK    2  A    between atoms: C_3  and  C_5 
REMARK    3  A    between atoms: C_12  and  C_16 
REMARK    4  A    between atoms: C_13  and  O_15 
REMARK       I    between atoms: C_16  and  N_18 
REMARK    5  A    between atoms: N_18  and  C_20 
REMARK    6  A    between atoms: C_23  and  N_26 
ROOT
HETATM    1  C   UNL     1       1.733   7.099  30.734  0.00  0.00     0.135 A 
HETATM    2  N   UNL     1       1.041   7.654  31.748  0.00  0.00    -0.170 NA
HETATM    3  N   UNL     1       0.200   8.510  31.147  0.00  0.00    -0.277 N 
HETATM    4  H   UNL     1      -0.415   9.067  31.730  0.00  0.00     0.189 HD
HETATM    5  C   UNL     1       1.279   7.596  29.471  0.00  0.00     0.027 A 
HETATM    6  C   UNL     1       0.320   8.551  29.786  0.00  0.00     0.065 A 
HETATM    7  C   UNL     1       1.587   7.388  28.109  0.00  0.00     0.036 C 
HETATM    8  C   UNL     1       0.989   8.186  27.103  0.00  0.00     0.066 C 
HETATM    9  C   UNL     1       0.127   9.216  27.500  0.00  0.00     0.083 C 
HETATM   10  C   UNL     1      -0.289   9.366  28.829  0.00  0.00     0.069 C 
ENDROOT
BRANCH   8  11
HETATM   11  C   UNL     1       1.479   7.935  25.713  0.00  0.00     0.260 C 
HETATM   12  O   UNL     1       0.626   8.141  24.843  0.00  0.00    -0.267 OA
HETATM   13  N   UNL     1       2.791   7.499  25.411  0.00  0.00    -0.318 N 
HETATM   14  C   UNL     1       3.768   7.037  26.396  0.00  0.00     0.159 C 
BRANCH  13  15
HETATM   15  C   UNL     1       3.222   7.461  24.030  0.00  0.00     0.037 A 
HETATM   16  C   UNL     1       3.812   8.578  23.435  0.00  0.00     0.032 A 
HETATM   17  C   UNL     1       4.187   8.571  22.084  0.00  0.00     0.031 A 
HETATM   18  C   UNL     1       3.990   7.461  21.256  0.00  0.00     0.030 A 
HETATM   19  C   UNL     1       3.465   6.320  21.879  0.00  0.00     0.031 A 
HETATM   20  C   UNL     1       3.095   6.312  23.244  0.00  0.00     0.032 A 
BRANCH  18  21
HETATM   21  N   UNL     1       4.291   7.517  19.913  0.00  0.00    -0.377 N 
HETATM   22  C   UNL     1       5.283   6.665  19.242  0.00  0.00     0.149 C 
HETATM   23  C   UNL     1       4.617   5.833  18.135  0.00  0.00     0.187 C 
HETATM   24  O   UNL     1       3.898   6.665  17.206  0.00  0.00    -0.388 OA
HETATM   25  C   UNL     1       2.873   7.399  17.894  0.00  0.00     0.187 C 
HETATM   26  C   UNL     1       3.460   8.310  18.987  0.00  0.00     0.149 C 
ENDBRANCH  18  21
ENDBRANCH  13  15
ENDBRANCH   8  11
BRANCH   9  27
HETATM   27  O   UNL     1      -0.305  10.209  26.662  0.00  0.00    -0.360 OA
HETATM   28  H   UNL     1       0.351  10.292  25.948  0.00  0.00     0.217 HD
ENDBRANCH   9  27
BRANCH   1  29
HETATM   29  C   UNL     1       2.826   6.143  30.987  0.00  0.00     0.180 C 
HETATM   30  O   UNL     1       2.600   4.985  31.339  0.00  0.00    -0.291 OA
BRANCH  29  31
HETATM   31  C   UNL     1       4.250   6.651  30.781  0.00  0.00     0.081 C 
HETATM   32  C   UNL     1       5.006   5.878  29.712  0.00  0.00     0.013 C 
ENDBRANCH  29  31
ENDBRANCH   1  29
TORSDOF 6
ENDMDL
MODEL 4
REMARK VINA RESULT:    -6.788      4.265     10.821
REMARK INTER + INTRA:          -9.897
REMARK INTER:                  -8.996
REMARK INTRA:                  -0.901
REMARK UNBOUND:                -0.927
REMARK  6 active torsions:
REMARK  status: ('A' for Active; 'I' for Inactive)
REMARK    1  A    between atoms: C_2  and  C_3 
REMARK    2  A    between atoms: C_3  and  C_5 
REMARK    3  A    between atoms: C_12  and  C_16 
REMARK    4  A    between atoms: C_13  and  O_15 
REMARK       I    between atoms: C_16  and  N_18 
REMARK    5  A    between atoms: N_18  and  C_20 
REMARK    6  A    between atoms: C_23  and  N_26 
ROOT
HETATM    1  C   UNL     1       4.116   6.412  22.486  0.00  0.00     0.135 A 
HETATM    2  N   UNL     1       5.335   6.886  22.812  0.00  0.00    -0.170 NA
HETATM    3  N   UNL     1       5.934   7.101  21.631  0.00  0.00    -0.277 N 
HETATM    4  H   UNL     1       6.889   7.443  21.633  0.00  0.00     0.189 HD
HETATM    5  C   UNL     1       3.945   6.373  21.065  0.00  0.00     0.027 A 
HETATM    6  C   UNL     1       5.169   6.778  20.546  0.00  0.00     0.065 A 
HETATM    7  C   UNL     1       2.926   6.009  20.159  0.00  0.00     0.036 C 
HETATM    8  C   UNL     1       3.174   5.985  18.764  0.00  0.00     0.066 C 
HETATM    9  C   UNL     1       4.467   6.282  18.317  0.00  0.00     0.083 C 
HETATM   10  C   UNL     1       5.460   6.762  19.180  0.00  0.00     0.069 C 
ENDROOT
BRANCH   8  11
HETATM   11  C   UNL     1       2.045   5.482  17.923  0.00  0.00     0.260 C 
HETATM   12  O   UNL     1       1.164   6.325  17.722  0.00  0.00    -0.267 OA
HETATM   13  N   UNL     1       1.981   4.167  17.403  0.00  0.00    -0.318 N 
HETATM   14  C   UNL     1       2.876   3.073  17.778  0.00  0.00     0.159 C 
BRANCH  13  15
HETATM   15  C   UNL     1       0.943   3.834  16.452  0.00  0.00     0.037 A 
HETATM   16  C   UNL     1       0.997   4.307  15.139  0.00  0.00     0.032 A 
HETATM   17  C   UNL     1      -0.028   4.035  14.223  0.00  0.00     0.031 A 
HETATM   18  C   UNL     1      -1.159   3.286  14.564  0.00  0.00     0.030 A 
HETATM   19  C   UNL     1      -1.171   2.753  15.860  0.00  0.00     0.031 A 
HETATM   20  C   UNL     1      -0.136   3.012  16.789  0.00  0.00     0.032 A 
BRANCH  18  21
HETATM   21  N   UNL     1      -2.189   3.109  13.665  0.00  0.00    -0.377 N 
HETATM   22  C   UNL     1      -3.191   2.036  13.743  0.00  0.00     0.149 C 
HETATM   23  C   UNL     1      -4.604   2.628  13.864  0.00  0.00     0.187 C 
HETATM   24  O   UNL     1      -4.883   3.556  12.800  0.00  0.00    -0.388 OA
HETATM   25  C   UNL     1      -3.939   4.639  12.831  0.00  0.00     0.187 C 
HETATM   26  C   UNL     1      -2.493   4.140  12.655  0.00  0.00     0.149 C 
ENDBRANCH  18  21
ENDBRANCH  13  15
ENDBRANCH   8  11
BRANCH   9  27
HETATM   27  O   UNL     1       4.902   6.044  17.040  0.00  0.00    -0.360 OA
HETATM   28  H   UNL     1       4.698   6.835  16.512  0.00  0.00     0.217 HD
ENDBRANCH   9  27
BRANCH   1  29
HETATM   29  C   UNL     1       3.163   5.977  23.521  0.00  0.00     0.180 C 
HETATM   30  O   UNL     1       2.965   4.784  23.753  0.00  0.00    -0.291 OA
BRANCH  29  31
HETATM   31  C   UNL     1       2.443   7.071  24.304  0.00  0.00     0.081 C 
HETATM   32  C   UNL     1       3.018   7.282  25.695  0.00  0.00     0.013 C 
ENDBRANCH  29  31
ENDBRANCH   1  29
TORSDOF 6
ENDMDL
MODEL 5
REMARK VINA RESULT:    -6.712      2.390      9.540
REMARK INTER + INTRA:          -9.797
REMARK INTER:                  -9.088
REMARK INTRA:                  -0.709
REMARK UNBOUND:                -0.927
REMARK  6 active torsions:
REMARK  status: ('A' for Active; 'I' for Inactive)
REMARK    1  A    between atoms: C_2  and  C_3 
REMARK    2  A    between atoms: C_3  and  C_5 
REMARK    3  A    between atoms: C_12  and  C_16 
REMARK    4  A    between atoms: C_13  and  O_15 
REMARK       I    between atoms: C_16  and  N_18 
REMARK    5  A    between atoms: N_18  and  C_20 
REMARK    6  A    between atoms: C_23  and  N_26 
ROOT
HETATM    1  C   UNL     1      -0.490   9.449  28.758  0.00  0.00     0.135 A 
HETATM    2  N   UNL     1      -0.449   9.261  30.092  0.00  0.00    -0.170 NA
HETATM    3  N   UNL     1       0.447   8.277  30.261  0.00  0.00    -0.277 N 
HETATM    4  H   UNL     1       0.626   7.948  31.204  0.00  0.00     0.189 HD
HETATM    5  C   UNL     1       0.436   8.585  28.090  0.00  0.00     0.027 A 
HETATM    6  C   UNL     1       0.985   7.802  29.098  0.00  0.00     0.065 A 
HETATM    7  C   UNL     1       0.845   8.341  26.761  0.00  0.00     0.036 C 
HETATM    8  C   UNL     1       1.731   7.277  26.462  0.00  0.00     0.066 C 
HETATM    9  C   UNL     1       2.147   6.447  27.510  0.00  0.00     0.083 C 
HETATM   10  C   UNL     1       1.855   6.738  28.848  0.00  0.00     0.069 C 
ENDROOT
BRANCH   8  11
HETATM   11  C   UNL     1       2.003   7.061  25.008  0.00  0.00     0.260 C 
HETATM   12  O   UNL     1       0.992   6.789  24.351  0.00  0.00    -0.267 OA
HETATM   13  N   UNL     1       3.291   7.154  24.429  0.00  0.00    -0.318 N 
HETATM   14  C   UNL     1       4.542   7.260  25.179  0.00  0.00     0.159 C 
BRANCH  13  15
HETATM   15  C   UNL     1       3.422   7.109  22.988  0.00  0.00     0.037 A 
HETATM   16  C   UNL     1       3.889   8.217  22.278  0.00  0.00     0.032 A 
HETATM   17  C   UNL     1       3.972   8.204  20.879  0.00  0.00     0.031 A 
HETATM   18  C   UNL     1       3.591   7.096  20.115  0.00  0.00     0.030 A 
HETATM   19  C   UNL     1       3.194   5.963  20.839  0.00  0.00     0.031 A 
HETATM   20  C   UNL     1       3.118   5.961  22.251  0.00  0.00     0.032 A 
BRANCH  18  21
HETATM   21  N   UNL     1       3.604   7.146  18.738  0.00  0.00    -0.377 N 
HETATM   22  C   UNL     1       4.005   6.034  17.865  0.00  0.00     0.149 C 
HETATM   23  C   UNL     1       2.847   5.633  16.938  0.00  0.00     0.187 C 
HETATM   24  O   UNL     1       2.351   6.759  16.191  0.00  0.00    -0.388 OA
HETATM   25  C   UNL     1       1.876   7.774  17.089  0.00  0.00     0.187 C 
HETATM   26  C   UNL     1       2.992   8.281  18.020  0.00  0.00     0.149 C 
ENDBRANCH  18  21
ENDBRANCH  13  15
ENDBRANCH   8  11
BRANCH   9  27
HETATM   27  O   UNL     1       2.782   5.248  27.323  0.00  0.00    -0.360 OA
HETATM   28  H   UNL     1       2.786   5.068  26.366  0.00  0.00     0.217 HD
ENDBRANCH   9  27
BRANCH   1  29
HETATM   29  C   UNL     1      -1.426  10.410  28.150  0.00  0.00     0.180 C 
HETATM   30  O   UNL     1      -2.640  10.335  28.339  0.00  0.00    -0.291 OA
BRANCH  29  31
HETATM   31  C   UNL     1      -0.821  11.512  27.284  0.00  0.00     0.081 C 
HETATM   32  C   UNL     1      -1.068  11.303  25.799  0.00  0.00     0.013 C 
ENDBRANCH  29  31
ENDBRANCH   1  29
TORSDOF 6
ENDMDL
MODEL 6
REMARK VINA RESULT:    -6.692      3.587      9.023
REMARK INTER + INTRA:          -9.771
REMARK INTER:                  -8.774
REMARK INTRA:                  -0.997
REMARK UNBOUND:                -0.927
REMARK  6 active torsions:
REMARK  status: ('A' for Active; 'I' for Inactive)
REMARK    1  A    between atoms: C_2  and  C_3 
REMARK    2  A    between atoms: C_3  and  C_5 
REMARK    3  A    between atoms: C_12  and  C_16 
REMARK    4  A    between atoms: C_13  and  O_15 
REMARK       I    between atoms: C_16  and  N_18 
REMARK    5  A    between atoms: N_18  and  C_20 
REMARK    6  A    between atoms: C_23  and  N_26 
ROOT
HETATM    1  C   UNL     1      -1.204  10.698  26.274  0.00  0.00     0.135 A 
HETATM    2  N   UNL     1      -1.596  11.272  27.428  0.00  0.00    -0.170 NA
HETATM    3  N   UNL     1      -0.905  10.619  28.375  0.00  0.00    -0.277 N 
HETATM    4  H   UNL     1      -1.062  10.873  29.344  0.00  0.00     0.189 HD
HETATM    5  C   UNL     1      -0.215   9.692  26.512  0.00  0.00     0.027 A 
HETATM    6  C   UNL     1      -0.089   9.634  27.895  0.00  0.00     0.065 A 
HETATM    7  C   UNL     1       0.556   8.799  25.736  0.00  0.00     0.036 C 
HETATM    8  C   UNL     1       1.374   7.823  26.357  0.00  0.00     0.066 C 
HETATM    9  C   UNL     1       1.356   7.737  27.755  0.00  0.00     0.083 C 
HETATM   10  C   UNL     1       0.699   8.684  28.549  0.00  0.00     0.069 C 
ENDROOT
BRANCH   8  11
HETATM   11  C   UNL     1       2.056   6.873  25.426  0.00  0.00     0.260 C 
HETATM   12  O   UNL     1       1.780   5.688  25.638  0.00  0.00    -0.267 OA
HETATM   13  N   UNL     1       2.939   7.282  24.398  0.00  0.00    -0.318 N 
HETATM   14  C   UNL     1       3.466   8.637  24.235  0.00  0.00     0.159 C 
BRANCH  13  15
HETATM   15  C   UNL     1       3.403   6.306  23.436  0.00  0.00     0.037 A 
HETATM   16  C   UNL     1       2.603   5.930  22.356  0.00  0.00     0.032 A 
HETATM   17  C   UNL     1       3.019   4.948  21.446  0.00  0.00     0.031 A 
HETATM   18  C   UNL     1       4.245   4.286  21.567  0.00  0.00     0.030 A 
HETATM   19  C   UNL     1       5.074   4.721  22.611  0.00  0.00     0.031 A 
HETATM   20  C   UNL     1       4.669   5.720  23.526  0.00  0.00     0.032 A 
BRANCH  18  21
HETATM   21  N   UNL     1       4.587   3.266  20.707  0.00  0.00    -0.377 N 
HETATM   22  C   UNL     1       4.488   1.834  21.026  0.00  0.00     0.149 C 
HETATM   23  C   UNL     1       3.541   1.129  20.043  0.00  0.00     0.187 C 
HETATM   24  O   UNL     1       3.929   1.355  18.676  0.00  0.00    -0.388 OA
HETATM   25  C   UNL     1       3.911   2.761  18.385  0.00  0.00     0.187 C 
HETATM   26  C   UNL     1       4.883   3.543  19.288  0.00  0.00     0.149 C 
ENDBRANCH  18  21
ENDBRANCH  13  15
ENDBRANCH   8  11
BRANCH   9  27
HETATM   27  O   UNL     1       1.888   6.688  28.457  0.00  0.00    -0.360 OA
HETATM   28  H   UNL     1       2.849   6.829  28.507  0.00  0.00     0.217 HD
ENDBRANCH   9  27
BRANCH   1  29
HETATM   29  C   UNL     1      -1.800  11.090  24.984  0.00  0.00     0.180 C 
HETATM   30  O   UNL     1      -2.999  10.933  24.755  0.00  0.00    -0.291 OA
BRANCH  29  31
HETATM   31  C   UNL     1      -0.865  11.712  23.951  0.00  0.00     0.081 C 
HETATM   32  C   UNL     1      -0.068  12.884  24.501  0.00  0.00     0.013 C 
ENDBRANCH  29  31
ENDBRANCH   1  29
TORSDOF 6
ENDMDL
MODEL 7
REMARK VINA RESULT:    -6.667      4.331      5.305
REMARK INTER + INTRA:          -9.737
REMARK INTER:                  -8.626
REMARK INTRA:                  -1.111
REMARK UNBOUND:                -0.927
REMARK  6 active torsions:
REMARK  status: ('A' for Active; 'I' for Inactive)
REMARK    1  A    between atoms: C_2  and  C_3 
REMARK    2  A    between atoms: C_3  and  C_5 
REMARK    3  A    between atoms: C_12  and  C_16 
REMARK    4  A    between atoms: C_13  and  O_15 
REMARK       I    between atoms: C_16  and  N_18 
REMARK    5  A    between atoms: N_18  and  C_20 
REMARK    6  A    between atoms: C_23  and  N_26 
ROOT
HETATM    1  C   UNL     1       0.470   5.542  17.011  0.00  0.00     0.135 A 
HETATM    2  N   UNL     1       0.263   6.422  16.012  0.00  0.00    -0.170 NA
HETATM    3  N   UNL     1       1.058   7.460  16.314  0.00  0.00    -0.277 N 
HETATM    4  H   UNL     1       1.048   8.267  15.700  0.00  0.00     0.189 HD
HETATM    5  C   UNL     1       1.449   6.033  17.932  0.00  0.00     0.027 A 
HETATM    6  C   UNL     1       1.766   7.306  17.473  0.00  0.00     0.065 A 
HETATM    7  C   UNL     1       2.074   5.578  19.114  0.00  0.00     0.036 C 
HETATM    8  C   UNL     1       2.938   6.428  19.848  0.00  0.00     0.066 C 
HETATM    9  C   UNL     1       3.114   7.742  19.396  0.00  0.00     0.083 C 
HETATM   10  C   UNL     1       2.606   8.180  18.167  0.00  0.00     0.069 C 
ENDROOT
BRANCH   8  11
HETATM   11  C   UNL     1       3.451   5.863  21.133  0.00  0.00     0.260 C 
HETATM   12  O   UNL     1       2.614   5.861  22.042  0.00  0.00    -0.267 OA
HETATM   13  N   UNL     1       4.769   5.377  21.304  0.00  0.00    -0.318 N 
HETATM   14  C   UNL     1       5.858   5.546  20.342  0.00  0.00     0.159 C 
BRANCH  13  15
HETATM   15  C   UNL     1       5.112   4.683  22.527  0.00  0.00     0.037 A 
HETATM   16  C   UNL     1       4.835   3.324  22.681  0.00  0.00     0.032 A 
HETATM   17  C   UNL     1       5.115   2.653  23.879  0.00  0.00     0.031 A 
HETATM   18  C   UNL     1       5.678   3.297  24.985  0.00  0.00     0.030 A 
HETATM   19  C   UNL     1       6.021   4.644  24.799  0.00  0.00     0.031 A 
HETATM   20  C   UNL     1       5.754   5.327  23.590  0.00  0.00     0.032 A 
BRANCH  18  21
HETATM   21  N   UNL     1       5.861   2.630  26.177  0.00  0.00    -0.377 N 
HETATM   22  C   UNL     1       6.290   3.263  27.432  0.00  0.00     0.149 C 
HETATM   23  C   UNL     1       5.230   3.062  28.525  0.00  0.00     0.187 C 
HETATM   24  O   UNL     1       4.904   1.672  28.701  0.00  0.00    -0.388 OA
HETATM   25  C   UNL     1       4.393   1.127  27.475  0.00  0.00     0.187 C 
HETATM   26  C   UNL     1       5.420   1.231  26.332  0.00  0.00     0.149 C 
ENDBRANCH  18  21
ENDBRANCH  13  15
ENDBRANCH   8  11
BRANCH   9  27
HETATM   27  O   UNL     1       3.704   8.728  20.142  0.00  0.00    -0.360 OA
HETATM   28  H   UNL     1       4.622   8.454  20.311  0.00  0.00     0.217 HD
ENDBRANCH   9  27
BRANCH   1  29
HETATM   29  C   UNL     1      -0.287   4.281  17.088  0.00  0.00     0.180 C 
HETATM   30  O   UNL     1      -1.161   4.105  17.937  0.00  0.00    -0.291 OA
BRANCH  29  31
HETATM   31  C   UNL     1       0.051   3.206  16.058  0.00  0.00     0.081 C 
HETATM   32  C   UNL     1       1.532   2.865  16.022  0.00  0.00     0.013 C 
ENDBRANCH  29  31
ENDBRANCH   1  29
TORSDOF 6
ENDMDL
MODEL 8
REMARK VINA RESULT:    -6.580      3.579      5.876
REMARK INTER + INTRA:          -9.622
REMARK INTER:                  -8.531
REMARK INTRA:                  -1.091
REMARK UNBOUND:                -0.927
REMARK  6 active torsions:
REMARK  status: ('A' for Active; 'I' for Inactive)
REMARK    1  A    between atoms: C_2  and  C_3 
REMARK    2  A    between atoms: C_3  and  C_5 
REMARK    3  A    between atoms: C_12  and  C_16 
REMARK    4  A    between atoms: C_13  and  O_15 
REMARK       I    between atoms: C_16  and  N_18 
REMARK    5  A    between atoms: N_18  and  C_20 
REMARK    6  A    between atoms: C_23  and  N_26 
ROOT
HETATM    1  C   UNL     1       1.095   3.067  14.908  0.00  0.00     0.135 A 
HETATM    2  N   UNL     1       0.696   3.452  13.679  0.00  0.00    -0.170 NA
HETATM    3  N   UNL     1       0.730   4.792  13.723  0.00  0.00    -0.277 N 
HETATM    4  H   UNL     1       0.441   5.307  12.899  0.00  0.00     0.189 HD
HETATM    5  C   UNL     1       1.423   4.201  15.718  0.00  0.00     0.027 A 
HETATM    6  C   UNL     1       1.120   5.304  14.929  0.00  0.00     0.065 A 
HETATM    7  C   UNL     1       1.896   4.430  17.028  0.00  0.00     0.036 C 
HETATM    8  C   UNL     1       1.985   5.746  17.545  0.00  0.00     0.066 C 
HETATM    9  C   UNL     1       1.543   6.804  16.740  0.00  0.00     0.083 C 
HETATM   10  C   UNL     1       1.185   6.618  15.399  0.00  0.00     0.069 C 
ENDROOT
BRANCH   8  11
HETATM   11  C   UNL     1       2.401   5.845  18.977  0.00  0.00     0.260 C 
HETATM   12  O   UNL     1       1.504   5.549  19.774  0.00  0.00    -0.267 OA
HETATM   13  N   UNL     1       3.695   6.242  19.392  0.00  0.00    -0.318 N 
HETATM   14  C   UNL     1       4.721   6.804  18.514  0.00  0.00     0.159 C 
BRANCH  13  15
HETATM   15  C   UNL     1       4.054   6.129  20.789  0.00  0.00     0.037 A 
HETATM   16  C   UNL     1       4.583   4.941  21.298  0.00  0.00     0.032 A 
HETATM   17  C   UNL     1       4.886   4.802  22.659  0.00  0.00     0.031 A 
HETATM   18  C   UNL     1       4.675   5.830  23.583  0.00  0.00     0.030 A 
HETATM   19  C   UNL     1       4.213   7.043  23.053  0.00  0.00     0.031 A 
HETATM   20  C   UNL     1       3.916   7.198  21.679  0.00  0.00     0.032 A 
BRANCH  18  21
HETATM   21  N   UNL     1       4.903   5.632  24.927  0.00  0.00    -0.377 N 
HETATM   22  C   UNL     1       4.439   6.530  25.995  0.00  0.00     0.149 C 
HETATM   23  C   UNL     1       3.514   5.779  26.965  0.00  0.00     0.187 C 
HETATM   24  O   UNL     1       4.141   4.594  27.486  0.00  0.00    -0.388 OA
HETATM   25  C   UNL     1       4.481   3.704  26.412  0.00  0.00     0.187 C 
HETATM   26  C   UNL     1       5.459   4.357  25.418  0.00  0.00     0.149 C 
ENDBRANCH  18  21
ENDBRANCH  13  15
ENDBRANCH   8  11
BRANCH   9  27
HETATM   27  O   UNL     1       1.333   8.075  17.205  0.00  0.00    -0.360 OA
HETATM   28  H   UNL     1       2.194   8.426  17.491  0.00  0.00     0.217 HD
ENDBRANCH   9  27
BRANCH   1  29
HETATM   29  C   UNL     1       1.121   1.646  15.293  0.00  0.00     0.180 C 
HETATM   30  O   UNL     1       0.186   1.128  15.905  0.00  0.00    -0.291 OA
BRANCH  29  31
HETATM   31  C   UNL     1       2.352   0.841  14.887  0.00  0.00     0.081 C 
HETATM   32  C   UNL     1       3.329   0.633  16.034  0.00  0.00     0.013 C 
ENDBRANCH  29  31
ENDBRANCH   1  29
TORSDOF 6
ENDMDL
MODEL 9
REMARK VINA RESULT:    -6.427      4.119     10.801
REMARK INTER + INTRA:          -9.420
REMARK INTER:                  -8.494
REMARK INTRA:                  -0.927
REMARK UNBOUND:                -0.927
REMARK  6 active torsions:
REMARK  status: ('A' for Active; 'I' for Inactive)
REMARK    1  A    between atoms: C_2  and  C_3 
REMARK    2  A    between atoms: C_3  and  C_5 
REMARK    3  A    between atoms: C_12  and  C_16 
REMARK    4  A    between atoms: C_13  and  O_15 
REMARK       I    between atoms: C_16  and  N_18 
REMARK    5  A    between atoms: N_18  and  C_20 
REMARK    6  A    between atoms: C_23  and  N_26 
ROOT
HETATM    1  C   UNL     1       3.586   6.496  23.476  0.00  0.00     0.135 A 
HETATM    2  N   UNL     1       4.106   7.478  24.238  0.00  0.00    -0.170 NA
HETATM    3  N   UNL     1       4.559   8.379  23.355  0.00  0.00    -0.277 N 
HETATM    4  H   UNL     1       5.022   9.209  23.710  0.00  0.00     0.189 HD
HETATM    5  C   UNL     1       3.684   6.821  22.085  0.00  0.00     0.027 A 
HETATM    6  C   UNL     1       4.372   8.028  22.047  0.00  0.00     0.065 A 
HETATM    7  C   UNL     1       3.315   6.227  20.859  0.00  0.00     0.036 C 
HETATM    8  C   UNL     1       3.705   6.810  19.627  0.00  0.00     0.066 C 
HETATM    9  C   UNL     1       4.506   7.958  19.663  0.00  0.00     0.083 C 
HETATM   10  C   UNL     1       4.783   8.634  20.858  0.00  0.00     0.069 C 
ENDROOT
BRANCH   8  11
HETATM   11  C   UNL     1       3.341   6.028  18.406  0.00  0.00     0.260 C 
HETATM   12  O   UNL     1       4.287   5.399  17.922  0.00  0.00    -0.267 OA
HETATM   13  N   UNL     1       2.040   6.007  17.848  0.00  0.00    -0.318 N 
HETATM   14  C   UNL     1       0.943   6.890  18.245  0.00  0.00     0.159 C 
BRANCH  13  15
HETATM   15  C   UNL     1       1.747   5.079  16.778  0.00  0.00     0.037 A 
HETATM   16  C   UNL     1       1.420   5.540  15.501  0.00  0.00     0.032 A 
HETATM   17  C   UNL     1       1.083   4.652  14.470  0.00  0.00     0.031 A 
HETATM   18  C   UNL     1       1.048   3.267  14.654  0.00  0.00     0.030 A 
HETATM   19  C   UNL     1       1.449   2.808  15.917  0.00  0.00     0.031 A 
HETATM   20  C   UNL     1       1.802   3.694  16.961  0.00  0.00     0.032 A 
BRANCH  18  21
HETATM   21  N   UNL     1       0.630   2.427  13.645  0.00  0.00    -0.377 N 
HETATM   22  C   UNL     1       1.278   1.156  13.291  0.00  0.00     0.149 C 
HETATM   23  C   UNL     1       0.291  -0.011  13.441  0.00  0.00     0.187 C 
HETATM   24  O   UNL     1      -0.914   0.212  12.686  0.00  0.00    -0.388 OA
HETATM   25  C   UNL     1      -1.563   1.410  13.140  0.00  0.00     0.187 C 
HETATM   26  C   UNL     1      -0.663   2.647  12.969  0.00  0.00     0.149 C 
ENDBRANCH  18  21
ENDBRANCH  13  15
ENDBRANCH   8  11
BRANCH   9  27
HETATM   27  O   UNL     1       5.158   8.462  18.570  0.00  0.00    -0.360 OA
HETATM   28  H   UNL     1       4.489   8.879  17.999  0.00  0.00     0.217 HD
ENDBRANCH   9  27
BRANCH   1  29
HETATM   29  C   UNL     1       3.044   5.266  24.078  0.00  0.00     0.180 C 
HETATM   30  O   UNL     1       2.242   5.305  25.012  0.00  0.00    -0.291 OA
BRANCH  29  31
HETATM   31  C   UNL     1       3.512   3.940  23.485  0.00  0.00     0.081 C 
HETATM   32  C   UNL     1       5.013   3.734  23.603  0.00  0.00     0.013 C 
ENDBRANCH  29  31
ENDBRANCH   1  29
TORSDOF 6
ENDMDL
