MODEL 1
REMARK VINA RESULT:   -10.001      0.000      0.000
REMARK INTER + INTRA:         -12.836
REMARK INTER:                 -11.848
REMARK INTRA:                  -0.987
REMARK UNBOUND:                -1.080
REMARK  3 active torsions:
REMARK  status: ('A' for Active; 'I' for Inactive)
REMARK       I    between atoms: C_2  and  N_3 
REMARK    1  A    between atoms: C_2  and  C_27 
REMARK    2  A    between atoms: N_3  and  C_4 
REMARK    3  A    between atoms: C_16  and  C_17 
ROOT
HETATM    1  C   UNL     1       3.062  12.731  25.069  0.00  0.00     0.153 A 
HETATM    2  C   UNL     1       3.796  13.902  24.459  0.00  0.00    -0.020 A 
HETATM    3  C   UNL     1       3.425  15.241  24.520  0.00  0.00     0.010 A 
HETATM    4  C   UNL     1       4.258  16.184  23.926  0.00  0.00     0.001 A 
HETATM    5  C   UNL     1       5.438  15.780  23.291  0.00  0.00     0.001 A 
HETATM    6  C   UNL     1       5.809  14.429  23.251  0.00  0.00     0.013 A 
HETATM    7  C   UNL     1       4.988  13.474  23.829  0.00  0.00    -0.016 A 
HETATM    8  C   UNL     1       5.126  12.024  23.998  0.00  0.00    -0.003 A 
HETATM    9  C   UNL     1       4.034  11.591  24.805  0.00  0.00    -0.019 A 
HETATM   10  C   UNL     1       3.890  10.281  25.241  0.00  0.00     0.010 A 
HETATM   11  C   UNL     1       4.827   9.348  24.824  0.00  0.00     0.002 A 
HETATM   12  C   UNL     1       5.882   9.737  23.983  0.00  0.00     0.016 A 
HETATM   13  C   UNL     1       6.064  11.078  23.563  0.00  0.00     0.022 A 
ENDROOT
BRANCH   1  14
HETATM   14  N   UNL     1       1.815  12.466  24.385  0.00  0.00    -0.344 N 
HETATM   15  C   UNL     1       0.617  12.970  24.820  0.00  0.00     0.252 C 
HETATM   16  O   UNL     1       0.502  13.720  25.781  0.00  0.00    -0.268 OA
HETATM   17  H   UNL     1       1.859  11.842  23.593  0.00  0.00     0.163 HD
BRANCH  15  18
HETATM   18  C   UNL     1      -0.592  12.477  24.110  0.00  0.00     0.034 A 
HETATM   19  C   UNL     1      -1.569  11.703  24.737  0.00  0.00     0.036 A 
HETATM   20  C   UNL     1      -2.694  11.368  24.003  0.00  0.00     0.117 A 
HETATM   21  N   UNL     1      -2.895  11.743  22.722  0.00  0.00    -0.273 NA
HETATM   22  C   UNL     1      -1.918  12.466  22.132  0.00  0.00     0.117 A 
HETATM   23  C   UNL     1      -0.755  12.844  22.775  0.00  0.00     0.036 A 
ENDBRANCH  15  18
ENDBRANCH   1  14
BRANCH  13  24
HETATM   24  C   UNL     1       7.190  11.381  22.674  0.00  0.00     0.140 A 
HETATM   25  N   UNL     1       8.467  11.440  22.998  0.00  0.00    -0.227 NA
HETATM   26  C   UNL     1       9.153  11.740  21.845  0.00  0.00     0.103 A 
HETATM   27  C   UNL     1      10.523  11.859  21.606  0.00  0.00     0.150 A 
HETATM   28  C   UNL     1       8.271  11.943  20.792  0.00  0.00     0.065 A 
HETATM   29  N   UNL     1      10.975  12.203  20.369  0.00  0.00    -0.271 NA
HETATM   30  C   UNL     1      10.070  12.425  19.385  0.00  0.00     0.118 A 
HETATM   31  C   UNL     1       8.692  12.306  19.518  0.00  0.00     0.051 A 
HETATM   32  N   UNL     1       7.037  11.695  21.335  0.00  0.00    -0.338 N 
HETATM   33  H   UNL     1       6.159  11.719  20.841  0.00  0.00     0.167 HD
ENDBRANCH  13  24
TORSDOF 3
ENDMDL
MODEL 2
REMARK VINA RESULT:    -9.272      4.020      7.964
REMARK INTER + INTRA:         -11.978
REMARK INTER:                 -11.076
REMARK INTRA:                  -0.902
REMARK UNBOUND:                -1.080
REMARK  3 active torsions:
REMARK  status: ('A' for Active; 'I' for Inactive)
REMARK       I    between atoms: C_2  and  N_3 
REMARK    1  A    between atoms: C_2  and  C_27 
REMARK    2  A    between atoms: N_3  and  C_4 
REMARK    3  A    between atoms: C_16  and  C_17 
ROOT
HETATM    1  C   UNL     1       7.606  14.691  22.598  0.00  0.00     0.153 A 
HETATM    2  C   UNL     1       6.202  14.213  22.890  0.00  0.00    -0.020 A 
HETATM    3  C   UNL     1       5.267  14.830  23.713  0.00  0.00     0.010 A 
HETATM    4  C   UNL     1       4.004  14.255  23.823  0.00  0.00     0.001 A 
HETATM    5  C   UNL     1       3.698  13.088  23.114  0.00  0.00     0.001 A 
HETATM    6  C   UNL     1       4.644  12.485  22.274  0.00  0.00     0.013 A 
HETATM    7  C   UNL     1       5.910  13.038  22.157  0.00  0.00    -0.016 A 
HETATM    8  C   UNL     1       7.071  12.683  21.336  0.00  0.00    -0.003 A 
HETATM    9  C   UNL     1       8.047  13.705  21.526  0.00  0.00    -0.019 A 
HETATM   10  C   UNL     1       9.249  13.740  20.833  0.00  0.00     0.010 A 
HETATM   11  C   UNL     1       9.527  12.702  19.958  0.00  0.00     0.002 A 
HETATM   12  C   UNL     1       8.608  11.653  19.793  0.00  0.00     0.016 A 
HETATM   13  C   UNL     1       7.360  11.625  20.463  0.00  0.00     0.022 A 
ENDROOT
BRANCH   1  14
HETATM   14  N   UNL     1       8.466  14.559  23.754  0.00  0.00    -0.344 N 
HETATM   15  C   UNL     1       9.580  15.337  23.932  0.00  0.00     0.252 C 
HETATM   16  O   UNL     1       9.914  16.234  23.170  0.00  0.00    -0.268 OA
HETATM   17  H   UNL     1       8.236  13.823  24.405  0.00  0.00     0.163 HD
BRANCH  15  18
HETATM   18  C   UNL     1      10.449  14.972  25.082  0.00  0.00     0.034 A 
HETATM   19  C   UNL     1       9.983  14.941  26.397  0.00  0.00     0.036 A 
HETATM   20  C   UNL     1      10.856  14.507  27.380  0.00  0.00     0.117 A 
HETATM   21  N   UNL     1      12.126  14.117  27.138  0.00  0.00    -0.273 NA
HETATM   22  C   UNL     1      12.558  14.187  25.860  0.00  0.00     0.117 A 
HETATM   23  C   UNL     1      11.769  14.613  24.810  0.00  0.00     0.036 A 
ENDBRANCH  15  18
ENDBRANCH   1  14
BRANCH  13  24
HETATM   24  C   UNL     1       6.473  10.479  20.235  0.00  0.00     0.140 A 
HETATM   25  N   UNL     1       5.864  10.156  19.110  0.00  0.00    -0.227 NA
HETATM   26  C   UNL     1       5.156   9.005  19.362  0.00  0.00     0.103 A 
HETATM   27  C   UNL     1       4.389   8.204  18.514  0.00  0.00     0.150 A 
HETATM   28  C   UNL     1       5.273   8.644  20.698  0.00  0.00     0.065 A 
HETATM   29  N   UNL     1       3.742   7.112  19.005  0.00  0.00    -0.271 NA
HETATM   30  C   UNL     1       3.860   6.823  20.324  0.00  0.00     0.118 A 
HETATM   31  C   UNL     1       4.619   7.543  21.239  0.00  0.00     0.051 A 
HETATM   32  N   UNL     1       6.123   9.581  21.226  0.00  0.00    -0.338 N 
HETATM   33  H   UNL     1       6.455   9.607  22.177  0.00  0.00     0.167 HD
ENDBRANCH  13  24
TORSDOF 3
ENDMDL
MODEL 3
REMARK VINA RESULT:    -9.203      2.342      8.634
REMARK INTER + INTRA:         -11.898
REMARK INTER:                 -10.867
REMARK INTRA:                  -1.030
REMARK UNBOUND:                -1.080
REMARK  3 active torsions:
REMARK  status: ('A' for Active; 'I' for Inactive)
REMARK       I    between atoms: C_2  and  N_3 
REMARK    1  A    between atoms: C_2  and  C_27 
REMARK    2  A    between atoms: N_3  and  C_4 
REMARK    3  A    between atoms: C_16  and  C_17 
ROOT
HETATM    1  C   UNL     1       6.164  12.956  24.868  0.00  0.00     0.153 A 
HETATM    2  C   UNL     1       5.500  11.635  24.553  0.00  0.00    -0.020 A 
HETATM    3  C   UNL     1       6.123  10.398  24.432  0.00  0.00     0.010 A 
HETATM    4  C   UNL     1       5.331   9.283  24.176  0.00  0.00     0.001 A 
HETATM    5  C   UNL     1       3.944   9.419  24.051  0.00  0.00     0.001 A 
HETATM    6  C   UNL     1       3.326  10.669  24.192  0.00  0.00     0.013 A 
HETATM    7  C   UNL     1       4.098  11.793  24.438  0.00  0.00    -0.016 A 
HETATM    8  C   UNL     1       3.751  13.195  24.686  0.00  0.00    -0.003 A 
HETATM    9  C   UNL     1       4.959  13.872  25.026  0.00  0.00    -0.019 A 
HETATM   10  C   UNL     1       4.996  15.206  25.409  0.00  0.00     0.010 A 
HETATM   11  C   UNL     1       3.806  15.917  25.406  0.00  0.00     0.002 A 
HETATM   12  C   UNL     1       2.610  15.290  25.021  0.00  0.00     0.016 A 
HETATM   13  C   UNL     1       2.551  13.920  24.667  0.00  0.00     0.022 A 
ENDROOT
BRANCH   1  14
HETATM   14  N   UNL     1       6.979  13.421  23.767  0.00  0.00    -0.344 N 
HETATM   15  C   UNL     1       8.085  14.208  23.954  0.00  0.00     0.252 C 
HETATM   16  O   UNL     1       8.507  14.540  25.053  0.00  0.00    -0.268 OA
HETATM   17  H   UNL     1       6.662  13.180  22.839  0.00  0.00     0.163 HD
BRANCH  15  18
HETATM   18  C   UNL     1       8.721  14.738  22.719  0.00  0.00     0.034 A 
HETATM   19  C   UNL     1       9.746  15.685  22.749  0.00  0.00     0.036 A 
HETATM   20  C   UNL     1      10.322  16.047  21.543  0.00  0.00     0.117 A 
HETATM   21  N   UNL     1       9.948  15.540  20.349  0.00  0.00    -0.273 NA
HETATM   22  C   UNL     1       8.933  14.649  20.349  0.00  0.00     0.117 A 
HETATM   23  C   UNL     1       8.288  14.228  21.496  0.00  0.00     0.036 A 
ENDBRANCH  15  18
ENDBRANCH   1  14
BRANCH  13  24
HETATM   24  C   UNL     1       1.256  13.359  24.267  0.00  0.00     0.140 A 
HETATM   25  N   UNL     1       0.643  13.519  23.110  0.00  0.00    -0.227 NA
HETATM   26  C   UNL     1      -0.528  12.803  23.182  0.00  0.00     0.103 A 
HETATM   27  C   UNL     1      -1.517  12.578  22.224  0.00  0.00     0.150 A 
HETATM   28  C   UNL     1      -0.678  12.242  24.443  0.00  0.00     0.065 A 
HETATM   29  N   UNL     1      -2.623  11.851  22.540  0.00  0.00    -0.271 NA
HETATM   30  C   UNL     1      -2.739  11.355  23.796  0.00  0.00     0.118 A 
HETATM   31  C   UNL     1      -1.798  11.502  24.808  0.00  0.00     0.051 A 
HETATM   32  N   UNL     1       0.468  12.594  25.107  0.00  0.00    -0.338 N 
HETATM   33  H   UNL     1       0.711  12.326  26.048  0.00  0.00     0.167 HD
ENDBRANCH  13  24
TORSDOF 3
ENDMDL
MODEL 4
REMARK VINA RESULT:    -8.816      2.702      4.212
REMARK INTER + INTRA:         -11.442
REMARK INTER:                 -10.441
REMARK INTRA:                  -1.001
REMARK UNBOUND:                -1.080
REMARK  3 active torsions:
REMARK  status: ('A' for Active; 'I' for Inactive)
REMARK       I    between atoms: C_2  and  N_3 
REMARK    1  A    between atoms: C_2  and  C_27 
REMARK    2  A    between atoms: N_3  and  C_4 
REMARK    3  A    between atoms: C_16  and  C_17 
ROOT
HETATM    1  C   UNL     1       3.157  12.811  22.576  0.00  0.00     0.153 A 
HETATM    2  C   UNL     1       4.343  11.959  22.186  0.00  0.00    -0.020 A 
HETATM    3  C   UNL     1       4.329  10.840  21.362  0.00  0.00     0.010 A 
HETATM    4  C   UNL     1       5.539  10.209  21.087  0.00  0.00     0.001 A 
HETATM    5  C   UNL     1       6.730  10.702  21.630  0.00  0.00     0.001 A 
HETATM    6  C   UNL     1       6.732  11.842  22.447  0.00  0.00     0.013 A 
HETATM    7  C   UNL     1       5.537  12.479  22.740  0.00  0.00    -0.016 A 
HETATM    8  C   UNL     1       5.226  13.696  23.496  0.00  0.00    -0.003 A 
HETATM    9  C   UNL     1       3.832  13.946  23.332  0.00  0.00    -0.019 A 
HETATM   10  C   UNL     1       3.201  15.071  23.844  0.00  0.00     0.010 A 
HETATM   11  C   UNL     1       3.958  15.959  24.593  0.00  0.00     0.002 A 
HETATM   12  C   UNL     1       5.321  15.708  24.817  0.00  0.00     0.016 A 
HETATM   13  C   UNL     1       5.987  14.585  24.267  0.00  0.00     0.022 A 
ENDROOT
BRANCH   1  14
HETATM   14  N   UNL     1       2.262  12.106  23.467  0.00  0.00    -0.344 N 
HETATM   15  C   UNL     1       0.913  12.344  23.492  0.00  0.00     0.252 C 
HETATM   16  O   UNL     1       0.344  13.124  22.739  0.00  0.00    -0.268 OA
HETATM   17  H   UNL     1       2.688  11.461  24.116  0.00  0.00     0.163 HD
BRANCH  15  18
HETATM   18  C   UNL     1       0.152  11.662  24.572  0.00  0.00     0.034 A 
HETATM   19  C   UNL     1      -0.799  12.321  25.353  0.00  0.00     0.036 A 
HETATM   20  C   UNL     1      -1.507  11.569  26.275  0.00  0.00     0.117 A 
HETATM   21  N   UNL     1      -1.327  10.244  26.461  0.00  0.00    -0.273 NA
HETATM   22  C   UNL     1      -0.379   9.640  25.712  0.00  0.00     0.117 A 
HETATM   23  C   UNL     1       0.386  10.302  24.772  0.00  0.00     0.036 A 
ENDBRANCH  15  18
ENDBRANCH   1  14
BRANCH  13  24
HETATM   24  C   UNL     1       7.411  14.403  24.570  0.00  0.00     0.140 A 
HETATM   25  N   UNL     1       7.941  13.536  25.412  0.00  0.00    -0.227 NA
HETATM   26  C   UNL     1       9.303  13.716  25.357  0.00  0.00     0.103 A 
HETATM   27  C   UNL     1      10.337  13.028  25.992  0.00  0.00     0.150 A 
HETATM   28  C   UNL     1       9.621  14.771  24.512  0.00  0.00     0.065 A 
HETATM   29  N   UNL     1      11.629  13.414  25.809  0.00  0.00    -0.271 NA
HETATM   30  C   UNL     1      11.884  14.472  25.001  0.00  0.00     0.118 A 
HETATM   31  C   UNL     1      10.926  15.202  24.307  0.00  0.00     0.051 A 
HETATM   32  N   UNL     1       8.411  15.179  24.014  0.00  0.00    -0.338 N 
HETATM   33  H   UNL     1       8.268  15.914  23.338  0.00  0.00     0.167 HD
ENDBRANCH  13  24
TORSDOF 3
ENDMDL
MODEL 5
REMARK VINA RESULT:    -8.748      1.931      8.649
REMARK INTER + INTRA:         -11.362
REMARK INTER:                 -10.346
REMARK INTRA:                  -1.016
REMARK UNBOUND:                -1.080
REMARK  3 active torsions:
REMARK  status: ('A' for Active; 'I' for Inactive)
REMARK       I    between atoms: C_2  and  N_3 
REMARK    1  A    between atoms: C_2  and  C_27 
REMARK    2  A    between atoms: N_3  and  C_4 
REMARK    3  A    between atoms: C_16  and  C_17 
ROOT
HETATM    1  C   UNL     1       6.430  12.482  24.167  0.00  0.00     0.153 A 
HETATM    2  C   UNL     1       5.610  11.238  24.417  0.00  0.00    -0.020 A 
HETATM    3  C   UNL     1       6.093   9.961  24.679  0.00  0.00     0.010 A 
HETATM    4  C   UNL     1       5.174   8.945  24.926  0.00  0.00     0.001 A 
HETATM    5  C   UNL     1       3.802   9.220  24.911  0.00  0.00     0.001 A 
HETATM    6  C   UNL     1       3.328  10.515  24.662  0.00  0.00     0.013 A 
HETATM    7  C   UNL     1       4.227  11.538  24.406  0.00  0.00    -0.016 A 
HETATM    8  C   UNL     1       4.050  12.974  24.173  0.00  0.00    -0.003 A 
HETATM    9  C   UNL     1       5.351  13.553  24.116  0.00  0.00    -0.019 A 
HETATM   10  C   UNL     1       5.566  14.919  23.992  0.00  0.00     0.010 A 
HETATM   11  C   UNL     1       4.458  15.743  23.864  0.00  0.00     0.002 A 
HETATM   12  C   UNL     1       3.166  15.193  23.860  0.00  0.00     0.016 A 
HETATM   13  C   UNL     1       2.931  13.806  24.027  0.00  0.00     0.022 A 
ENDROOT
BRANCH   1  14
HETATM   14  N   UNL     1       7.110  12.426  22.891  0.00  0.00    -0.344 N 
HETATM   15  C   UNL     1       8.459  12.209  22.787  0.00  0.00     0.252 C 
HETATM   16  O   UNL     1       9.191  11.995  23.744  0.00  0.00    -0.268 OA
HETATM   17  H   UNL     1       6.548  12.608  22.072  0.00  0.00     0.163 HD
BRANCH  15  18
HETATM   18  C   UNL     1       9.035  12.342  21.422  0.00  0.00     0.034 A 
HETATM   19  C   UNL     1      10.348  11.976  21.122  0.00  0.00     0.036 A 
HETATM   20  C   UNL     1      10.754  12.064  19.801  0.00  0.00     0.117 A 
HETATM   21  N   UNL     1       9.957  12.484  18.796  0.00  0.00    -0.273 NA
HETATM   22  C   UNL     1       8.701  12.860  19.122  0.00  0.00     0.117 A 
HETATM   23  C   UNL     1       8.202  12.817  20.410  0.00  0.00     0.036 A 
ENDBRANCH  15  18
ENDBRANCH   1  14
BRANCH  13  24
HETATM   24  C   UNL     1       1.545  13.327  23.996  0.00  0.00     0.140 A 
HETATM   25  N   UNL     1       0.836  12.875  25.013  0.00  0.00    -0.227 NA
HETATM   26  C   UNL     1      -0.405  12.555  24.517  0.00  0.00     0.103 A 
HETATM   27  C   UNL     1      -1.553  12.096  25.164  0.00  0.00     0.150 A 
HETATM   28  C   UNL     1      -0.444  12.749  23.142  0.00  0.00     0.065 A 
HETATM   29  N   UNL     1      -2.675  11.811  24.448  0.00  0.00    -0.271 NA
HETATM   30  C   UNL     1      -2.650  11.983  23.104  0.00  0.00     0.118 A 
HETATM   31  C   UNL     1      -1.567  12.459  22.374  0.00  0.00     0.051 A 
HETATM   32  N   UNL     1       0.794  13.251  22.838  0.00  0.00    -0.338 N 
HETATM   33  H   UNL     1       1.106  13.538  21.923  0.00  0.00     0.167 HD
ENDBRANCH  13  24
TORSDOF 3
ENDMDL
MODEL 6
REMARK VINA RESULT:    -8.584      3.225      8.222
REMARK INTER + INTRA:         -11.170
REMARK INTER:                 -10.226
REMARK INTRA:                  -0.944
REMARK UNBOUND:                -1.080
REMARK  3 active torsions:
REMARK  status: ('A' for Active; 'I' for Inactive)
REMARK       I    between atoms: C_2  and  N_3 
REMARK    1  A    between atoms: C_2  and  C_27 
REMARK    2  A    between atoms: N_3  and  C_4 
REMARK    3  A    between atoms: C_16  and  C_17 
ROOT
HETATM    1  C   UNL     1       6.042  14.633  23.074  0.00  0.00     0.153 A 
HETATM    2  C   UNL     1       4.930  14.855  24.074  0.00  0.00    -0.020 A 
HETATM    3  C   UNL     1       4.606  16.049  24.708  0.00  0.00     0.010 A 
HETATM    4  C   UNL     1       3.515  16.062  25.571  0.00  0.00     0.001 A 
HETATM    5  C   UNL     1       2.770  14.896  25.782  0.00  0.00     0.001 A 
HETATM    6  C   UNL     1       3.096  13.703  25.123  0.00  0.00     0.013 A 
HETATM    7  C   UNL     1       4.185  13.667  24.267  0.00  0.00    -0.016 A 
HETATM    8  C   UNL     1       4.732  12.612  23.408  0.00  0.00    -0.003 A 
HETATM    9  C   UNL     1       5.777  13.200  22.636  0.00  0.00    -0.019 A 
HETATM   10  C   UNL     1       6.466  12.511  21.648  0.00  0.00     0.010 A 
HETATM   11  C   UNL     1       6.153  11.175  21.447  0.00  0.00     0.002 A 
HETATM   12  C   UNL     1       5.168  10.556  22.231  0.00  0.00     0.016 A 
HETATM   13  C   UNL     1       4.428  11.257  23.215  0.00  0.00     0.022 A 
ENDROOT
BRANCH   1  14
HETATM   14  N   UNL     1       7.345  14.710  23.698  0.00  0.00    -0.344 N 
HETATM   15  C   UNL     1       8.437  15.231  23.055  0.00  0.00     0.252 C 
HETATM   16  O   UNL     1       8.399  15.718  21.933  0.00  0.00    -0.268 OA
HETATM   17  H   UNL     1       7.427  14.310  24.621  0.00  0.00     0.163 HD
BRANCH  15  18
HETATM   18  C   UNL     1       9.736  15.091  23.764  0.00  0.00     0.034 A 
HETATM   19  C   UNL     1       9.863  14.403  24.972  0.00  0.00     0.036 A 
HETATM   20  C   UNL     1      11.134  14.263  25.503  0.00  0.00     0.117 A 
HETATM   21  N   UNL     1      12.249  14.755  24.922  0.00  0.00    -0.273 NA
HETATM   22  C   UNL     1      12.091  15.442  23.770  0.00  0.00     0.117 A 
HETATM   23  C   UNL     1      10.866  15.644  23.163  0.00  0.00     0.036 A 
ENDBRANCH  15  18
ENDBRANCH   1  14
BRANCH  13  24
HETATM   24  C   UNL     1       3.428  10.518  23.993  0.00  0.00     0.140 A 
HETATM   25  N   UNL     1       3.648   9.528  24.836  0.00  0.00    -0.227 NA
HETATM   26  C   UNL     1       2.423   9.158  25.338  0.00  0.00     0.103 A 
HETATM   27  C   UNL     1       2.084   8.211  26.305  0.00  0.00     0.150 A 
HETATM   28  C   UNL     1       1.409   9.892  24.736  0.00  0.00     0.065 A 
HETATM   29  N   UNL     1       0.778   7.991  26.620  0.00  0.00    -0.271 NA
HETATM   30  C   UNL     1      -0.176   8.709  25.979  0.00  0.00     0.118 A 
HETATM   31  C   UNL     1       0.063   9.690  25.023  0.00  0.00     0.051 A 
HETATM   32  N   UNL     1       2.069  10.756  23.902  0.00  0.00    -0.338 N 
HETATM   33  H   UNL     1       1.640  11.464  23.326  0.00  0.00     0.167 HD
ENDBRANCH  13  24
TORSDOF 3
ENDMDL
MODEL 7
REMARK VINA RESULT:    -8.520      2.995      8.386
REMARK INTER + INTRA:         -11.095
REMARK INTER:                 -10.575
REMARK INTRA:                  -0.520
REMARK UNBOUND:                -1.080
REMARK  3 active torsions:
REMARK  status: ('A' for Active; 'I' for Inactive)
REMARK       I    between atoms: C_2  and  N_3 
REMARK    1  A    between atoms: C_2  and  C_27 
REMARK    2  A    between atoms: N_3  and  C_4 
REMARK    3  A    between atoms: C_16  and  C_17 
ROOT
HETATM    1  C   UNL     1       6.646  13.743  22.169  0.00  0.00     0.153 A 
HETATM    2  C   UNL     1       5.536  14.380  22.974  0.00  0.00    -0.020 A 
HETATM    3  C   UNL     1       5.410  15.726  23.299  0.00  0.00     0.010 A 
HETATM    4  C   UNL     1       4.289  16.128  24.018  0.00  0.00     0.001 A 
HETATM    5  C   UNL     1       3.320  15.190  24.395  0.00  0.00     0.001 A 
HETATM    6  C   UNL     1       3.452  13.839  24.048  0.00  0.00     0.013 A 
HETATM    7  C   UNL     1       4.565  13.417  23.339  0.00  0.00    -0.016 A 
HETATM    8  C   UNL     1       4.952  12.114  22.790  0.00  0.00    -0.003 A 
HETATM    9  C   UNL     1       6.137  12.316  22.025  0.00  0.00    -0.019 A 
HETATM   10  C   UNL     1       6.742  11.308  21.287  0.00  0.00     0.010 A 
HETATM   11  C   UNL     1       6.190  10.037  21.346  0.00  0.00     0.002 A 
HETATM   12  C   UNL     1       5.055   9.797  22.137  0.00  0.00     0.016 A 
HETATM   13  C   UNL     1       4.404  10.825  22.863  0.00  0.00     0.022 A 
ENDROOT
BRANCH   1  14
HETATM   14  N   UNL     1       7.896  13.735  22.896  0.00  0.00    -0.344 N 
HETATM   15  C   UNL     1       8.901  14.630  22.638  0.00  0.00     0.252 C 
HETATM   16  O   UNL     1       8.814  15.536  21.820  0.00  0.00    -0.268 OA
HETATM   17  H   UNL     1       8.019  12.997  23.575  0.00  0.00     0.163 HD
BRANCH  15  18
HETATM   18  C   UNL     1      10.183  14.391  23.352  0.00  0.00     0.034 A 
HETATM   19  C   UNL     1      11.186  15.358  23.441  0.00  0.00     0.036 A 
HETATM   20  C   UNL     1      12.304  15.058  24.200  0.00  0.00     0.117 A 
HETATM   21  N   UNL     1      12.477  13.889  24.853  0.00  0.00    -0.273 NA
HETATM   22  C   UNL     1      11.504  12.962  24.724  0.00  0.00     0.117 A 
HETATM   23  C   UNL     1      10.355  13.160  23.984  0.00  0.00     0.036 A 
ENDBRANCH  15  18
ENDBRANCH   1  14
BRANCH  13  24
HETATM   24  C   UNL     1       3.233  10.472  23.671  0.00  0.00     0.140 A 
HETATM   25  N   UNL     1       3.089   9.412  24.444  0.00  0.00    -0.227 NA
HETATM   26  C   UNL     1       1.841   9.506  25.013  0.00  0.00     0.103 A 
HETATM   27  C   UNL     1       1.206   8.691  25.952  0.00  0.00     0.150 A 
HETATM   28  C   UNL     1       1.166  10.617  24.525  0.00  0.00     0.065 A 
HETATM   29  N   UNL     1      -0.066   8.969  26.348  0.00  0.00    -0.271 NA
HETATM   30  C   UNL     1      -0.694  10.045  25.816  0.00  0.00     0.118 A 
HETATM   31  C   UNL     1      -0.137  10.927  24.898  0.00  0.00     0.051 A 
HETATM   32  N   UNL     1       2.070  11.221  23.691  0.00  0.00    -0.338 N 
HETATM   33  H   UNL     1       1.924  12.080  23.186  0.00  0.00     0.167 HD
ENDBRANCH  13  24
TORSDOF 3
ENDMDL
MODEL 8
REMARK VINA RESULT:    -8.122      1.739      2.290
REMARK INTER + INTRA:         -10.627
REMARK INTER:                  -9.648
REMARK INTRA:                  -0.979
REMARK UNBOUND:                -1.080
REMARK  3 active torsions:
REMARK  status: ('A' for Active; 'I' for Inactive)
REMARK       I    between atoms: C_2  and  N_3 
REMARK    1  A    between atoms: C_2  and  C_27 
REMARK    2  A    between atoms: N_3  and  C_4 
REMARK    3  A    between atoms: C_16  and  C_17 
ROOT
HETATM    1  C   UNL     1       3.381  11.993  24.150  0.00  0.00     0.153 A 
HETATM    2  C   UNL     1       4.117  13.235  24.599  0.00  0.00    -0.020 A 
HETATM    3  C   UNL     1       3.714  14.132  25.582  0.00  0.00     0.010 A 
HETATM    4  C   UNL     1       4.554  15.200  25.884  0.00  0.00     0.001 A 
HETATM    5  C   UNL     1       5.771  15.351  25.209  0.00  0.00     0.001 A 
HETATM    6  C   UNL     1       6.173  14.431  24.232  0.00  0.00     0.013 A 
HETATM    7  C   UNL     1       5.347  13.365  23.911  0.00  0.00    -0.016 A 
HETATM    8  C   UNL     1       5.509  12.230  22.998  0.00  0.00    -0.003 A 
HETATM    9  C   UNL     1       4.390  11.369  23.197  0.00  0.00    -0.019 A 
HETATM   10  C   UNL     1       4.254  10.146  22.556  0.00  0.00     0.010 A 
HETATM   11  C   UNL     1       5.231   9.777  21.643  0.00  0.00     0.002 A 
HETATM   12  C   UNL     1       6.315  10.631  21.386  0.00  0.00     0.016 A 
HETATM   13  C   UNL     1       6.487  11.864  22.062  0.00  0.00     0.022 A 
ENDROOT
BRANCH   1  14
HETATM   14  N   UNL     1       2.174  12.321  23.423  0.00  0.00    -0.344 N 
HETATM   15  C   UNL     1       0.949  12.398  24.032  0.00  0.00     0.252 C 
HETATM   16  O   UNL     1       0.775  12.250  25.235  0.00  0.00    -0.268 OA
HETATM   17  H   UNL     1       2.267  12.441  22.426  0.00  0.00     0.163 HD
BRANCH  15  18
HETATM   18  C   UNL     1      -0.216  12.582  23.127  0.00  0.00     0.034 A 
HETATM   19  C   UNL     1      -0.090  13.101  21.837  0.00  0.00     0.036 A 
HETATM   20  C   UNL     1      -1.229  13.152  21.051  0.00  0.00     0.117 A 
HETATM   21  N   UNL     1      -2.445  12.733  21.461  0.00  0.00    -0.273 NA
HETATM   22  C   UNL     1      -2.541  12.264  22.724  0.00  0.00     0.117 A 
HETATM   23  C   UNL     1      -1.468  12.180  23.590  0.00  0.00     0.036 A 
ENDBRANCH  15  18
ENDBRANCH   1  14
BRANCH  13  24
HETATM   24  C   UNL     1       7.646  12.692  21.715  0.00  0.00     0.140 A 
HETATM   25  N   UNL     1       7.641  13.826  21.040  0.00  0.00    -0.227 NA
HETATM   26  C   UNL     1       8.947  14.249  20.970  0.00  0.00     0.103 A 
HETATM   27  C   UNL     1       9.499  15.410  20.427  0.00  0.00     0.150 A 
HETATM   28  C   UNL     1       9.793  13.317  21.556  0.00  0.00     0.065 A 
HETATM   29  N   UNL     1      10.846  15.600  20.445  0.00  0.00    -0.271 NA
HETATM   30  C   UNL     1      11.631  14.643  20.997  0.00  0.00     0.118 A 
HETATM   31  C   UNL     1      11.174  13.469  21.584  0.00  0.00     0.051 A 
HETATM   32  N   UNL     1       8.947  12.349  22.034  0.00  0.00    -0.338 N 
HETATM   33  H   UNL     1       9.222  11.528  22.550  0.00  0.00     0.167 HD
ENDBRANCH  13  24
TORSDOF 3
ENDMDL
MODEL 9
REMARK VINA RESULT:    -7.965      3.630      4.816
REMARK INTER + INTRA:         -10.442
REMARK INTER:                  -9.362
REMARK INTRA:                  -1.080
REMARK UNBOUND:                -1.080
REMARK  3 active torsions:
REMARK  status: ('A' for Active; 'I' for Inactive)
REMARK       I    between atoms: C_2  and  N_3 
REMARK    1  A    between atoms: C_2  and  C_27 
REMARK    2  A    between atoms: N_3  and  C_4 
REMARK    3  A    between atoms: C_16  and  C_17 
ROOT
HETATM    1  C   UNL     1       4.358  10.160  23.991  0.00  0.00     0.153 A 
HETATM    2  C   UNL     1       4.058  11.632  23.820  0.00  0.00    -0.020 A 
HETATM    3  C   UNL     1       2.802  12.229  23.805  0.00  0.00     0.010 A 
HETATM    4  C   UNL     1       2.732  13.613  23.676  0.00  0.00     0.001 A 
HETATM    5  C   UNL     1       3.905  14.370  23.568  0.00  0.00     0.001 A 
HETATM    6  C   UNL     1       5.165  13.757  23.601  0.00  0.00     0.013 A 
HETATM    7  C   UNL     1       5.255  12.379  23.720  0.00  0.00    -0.016 A 
HETATM    8  C   UNL     1       6.400  11.471  23.840  0.00  0.00    -0.003 A 
HETATM    9  C   UNL     1       5.876  10.168  24.086  0.00  0.00    -0.019 A 
HETATM   10  C   UNL     1       6.681   9.066  24.338  0.00  0.00     0.010 A 
HETATM   11  C   UNL     1       8.056   9.239  24.292  0.00  0.00     0.002 A 
HETATM   12  C   UNL     1       8.598  10.500  23.996  0.00  0.00     0.016 A 
HETATM   13  C   UNL     1       7.790  11.642  23.778  0.00  0.00     0.022 A 
ENDROOT
BRANCH   1  14
HETATM   14  N   UNL     1       3.954   9.394  22.833  0.00  0.00    -0.344 N 
HETATM   15  C   UNL     1       3.520   8.097  22.925  0.00  0.00     0.252 C 
HETATM   16  O   UNL     1       3.388   7.497  23.983  0.00  0.00    -0.268 OA
HETATM   17  H   UNL     1       4.056   9.845  21.936  0.00  0.00     0.163 HD
BRANCH  15  18
HETATM   18  C   UNL     1       3.298   7.393  21.635  0.00  0.00     0.034 A 
HETATM   19  C   UNL     1       2.214   6.541  21.421  0.00  0.00     0.036 A 
HETATM   20  C   UNL     1       2.058   6.003  20.154  0.00  0.00     0.117 A 
HETATM   21  N   UNL     1       2.893   6.254  19.124  0.00  0.00    -0.273 NA
HETATM   22  C   UNL     1       3.950   7.058  19.369  0.00  0.00     0.117 A 
HETATM   23  C   UNL     1       4.198   7.637  20.598  0.00  0.00     0.036 A 
ENDBRANCH  15  18
ENDBRANCH   1  14
BRANCH  13  24
HETATM   24  C   UNL     1       8.450  12.913  23.462  0.00  0.00     0.140 A 
HETATM   25  N   UNL     1       8.617  13.449  22.268  0.00  0.00    -0.227 NA
HETATM   26  C   UNL     1       9.272  14.642  22.459  0.00  0.00     0.103 A 
HETATM   27  C   UNL     1       9.640  15.634  21.549  0.00  0.00     0.150 A 
HETATM   28  C   UNL     1       9.582  14.818  23.801  0.00  0.00     0.065 A 
HETATM   29  N   UNL     1      10.322  16.732  21.973  0.00  0.00    -0.271 NA
HETATM   30  C   UNL     1      10.631  16.839  23.288  0.00  0.00     0.118 A 
HETATM   31  C   UNL     1      10.286  15.920  24.272  0.00  0.00     0.051 A 
HETATM   32  N   UNL     1       9.039  13.720  24.418  0.00  0.00    -0.338 N 
HETATM   33  H   UNL     1       9.049  13.535  25.409  0.00  0.00     0.167 HD
ENDBRANCH  13  24
TORSDOF 3
ENDMDL
