MODEL 1
REMARK VINA RESULT:    -8.139      0.000      0.000
REMARK INTER + INTRA:         -11.417
REMARK INTER:                 -10.297
REMARK INTRA:                  -1.120
REMARK UNBOUND:                -0.662
REMARK  6 active torsions:
REMARK  status: ('A' for Active; 'I' for Inactive)
REMARK    1  A    between atoms: C_5  and  C_6 
REMARK    2  A    between atoms: C_6  and  C_7 
REMARK    3  A    between atoms: C_14  and  C_18 
REMARK    4  A    between atoms: C_15  and  O_17 
REMARK       I    between atoms: C_18  and  N_20 
REMARK    5  A    between atoms: N_20  and  C_22 
REMARK    6  A    between atoms: C_25  and  N_28 
ROOT
HETATM    1  C   UNL     1       2.895   6.925  18.091  0.00  0.00     0.067 A 
HETATM    2  N   UNL     1       3.597   6.440  17.050  0.00  0.00    -0.178 NA
HETATM    3  N   UNL     1       4.702   5.926  17.613  0.00  0.00    -0.277 N 
HETATM    4  H   UNL     1       5.405   5.524  17.005  0.00  0.00     0.189 HD
HETATM    5  C   UNL     1       3.548   6.656  19.329  0.00  0.00     0.019 A 
HETATM    6  C   UNL     1       4.757   6.080  18.972  0.00  0.00     0.065 A 
HETATM    7  C   UNL     1       3.299   6.890  20.697  0.00  0.00     0.035 C 
HETATM    8  C   UNL     1       4.319   6.689  21.665  0.00  0.00     0.066 C 
HETATM    9  C   UNL     1       5.560   6.219  21.221  0.00  0.00     0.083 C 
HETATM   10  C   UNL     1       5.773   5.809  19.895  0.00  0.00     0.069 C 
ENDROOT
BRANCH   8  11
HETATM   11  C   UNL     1       3.991   7.220  23.032  0.00  0.00     0.260 C 
HETATM   12  O   UNL     1       4.297   8.412  23.161  0.00  0.00    -0.267 OA
HETATM   13  N   UNL     1       3.422   6.460  24.087  0.00  0.00    -0.318 N 
HETATM   14  C   UNL     1       3.192   5.017  24.035  0.00  0.00     0.159 C 
BRANCH  13  15
HETATM   15  C   UNL     1       3.068   7.118  25.337  0.00  0.00     0.037 A 
HETATM   16  C   UNL     1       3.831   6.941  26.492  0.00  0.00     0.032 A 
HETATM   17  C   UNL     1       3.455   7.503  27.722  0.00  0.00     0.031 A 
HETATM   18  C   UNL     1       2.303   8.278  27.872  0.00  0.00     0.030 A 
HETATM   19  C   UNL     1       1.588   8.536  26.697  0.00  0.00     0.031 A 
HETATM   20  C   UNL     1       1.961   7.971  25.453  0.00  0.00     0.032 A 
BRANCH  18  21
HETATM   21  N   UNL     1       1.916   8.731  29.118  0.00  0.00    -0.377 N 
HETATM   22  C   UNL     1       0.526   8.955  29.537  0.00  0.00     0.149 C 
HETATM   23  C   UNL     1       0.194   8.097  30.768  0.00  0.00     0.187 C 
HETATM   24  O   UNL     1       1.123   8.329  31.842  0.00  0.00    -0.388 OA
HETATM   25  C   UNL     1       2.458   8.008  31.415  0.00  0.00     0.187 C 
HETATM   26  C   UNL     1       2.896   8.864  30.215  0.00  0.00     0.149 C 
ENDBRANCH  18  21
ENDBRANCH  13  15
ENDBRANCH   8  11
BRANCH   9  27
HETATM   27  O   UNL     1       6.693   6.218  21.988  0.00  0.00    -0.360 OA
HETATM   28  H   UNL     1       6.721   5.359  22.448  0.00  0.00     0.217 HD
ENDBRANCH   9  27
BRANCH   1  29
HETATM   29  C   UNL     1       1.625   7.673  17.817  0.00  0.00     0.066 C 
BRANCH  29  30
HETATM   30  C   UNL     1       0.369   6.795  17.659  0.00  0.00    -0.009 C 
HETATM   31  C   UNL     1       0.301   5.710  18.751  0.00  0.00     0.005 C 
HETATM   32  C   UNL     1      -0.386   4.530  18.083  0.00  0.00     0.000 C 
HETATM   33  C   UNL     1       0.198   4.549  16.682  0.00  0.00     0.000 C 
HETATM   34  C   UNL     1       0.268   6.029  16.324  0.00  0.00     0.005 C 
ENDBRANCH  29  30
ENDBRANCH   1  29
TORSDOF 6
ENDMDL
MODEL 2
REMARK VINA RESULT:    -7.752      3.698      9.178
REMARK INTER + INTRA:         -10.906
REMARK INTER:                  -9.724
REMARK INTRA:                  -1.182
REMARK UNBOUND:                -0.662
REMARK  6 active torsions:
REMARK  status: ('A' for Active; 'I' for Inactive)
REMARK    1  A    between atoms: C_5  and  C_6 
REMARK    2  A    between atoms: C_6  and  C_7 
REMARK    3  A    between atoms: C_14  and  C_18 
REMARK    4  A    between atoms: C_15  and  O_17 
REMARK       I    between atoms: C_18  and  N_20 
REMARK    5  A    between atoms: N_20  and  C_22 
REMARK    6  A    between atoms: C_25  and  N_28 
ROOT
HETATM    1  C   UNL     1      -1.377  10.318  26.303  0.00  0.00     0.067 A 
HETATM    2  N   UNL     1      -1.763  10.881  27.462  0.00  0.00    -0.178 NA
HETATM    3  N   UNL     1      -0.913  10.376  28.369  0.00  0.00    -0.277 N 
HETATM    4  H   UNL     1      -1.036  10.641  29.339  0.00  0.00     0.189 HD
HETATM    5  C   UNL     1      -0.229   9.493  26.482  0.00  0.00     0.019 A 
HETATM    6  C   UNL     1      -0.008   9.490  27.851  0.00  0.00     0.065 A 
HETATM    7  C   UNL     1       0.604   8.697  25.670  0.00  0.00     0.035 C 
HETATM    8  C   UNL     1       1.538   7.797  26.250  0.00  0.00     0.066 C 
HETATM    9  C   UNL     1       1.626   7.755  27.647  0.00  0.00     0.083 C 
HETATM   10  C   UNL     1       0.938   8.664  28.467  0.00  0.00     0.069 C 
ENDROOT
BRANCH   8  11
HETATM   11  C   UNL     1       2.165   6.840  25.277  0.00  0.00     0.260 C 
HETATM   12  O   UNL     1       1.872   5.662  25.518  0.00  0.00    -0.267 OA
HETATM   13  N   UNL     1       3.026   7.209  24.210  0.00  0.00    -0.318 N 
HETATM   14  C   UNL     1       3.528   8.563  23.985  0.00  0.00     0.159 C 
BRANCH  13  15
HETATM   15  C   UNL     1       3.495   6.190  23.281  0.00  0.00     0.037 A 
HETATM   16  C   UNL     1       2.759   5.851  22.144  0.00  0.00     0.032 A 
HETATM   17  C   UNL     1       3.158   4.814  21.286  0.00  0.00     0.031 A 
HETATM   18  C   UNL     1       4.313   4.060  21.505  0.00  0.00     0.030 A 
HETATM   19  C   UNL     1       5.102   4.460  22.590  0.00  0.00     0.031 A 
HETATM   20  C   UNL     1       4.705   5.504  23.461  0.00  0.00     0.032 A 
BRANCH  18  21
HETATM   21  N   UNL     1       4.618   2.986  20.692  0.00  0.00    -0.377 N 
HETATM   22  C   UNL     1       4.445   1.575  21.063  0.00  0.00     0.149 C 
HETATM   23  C   UNL     1       3.505   0.874  20.071  0.00  0.00     0.187 C 
HETATM   24  O   UNL     1       3.959   1.021  18.714  0.00  0.00    -0.388 OA
HETATM   25  C   UNL     1       4.024   2.415  18.366  0.00  0.00     0.187 C 
HETATM   26  C   UNL     1       4.991   3.188  19.278  0.00  0.00     0.149 C 
ENDBRANCH  18  21
ENDBRANCH  13  15
ENDBRANCH   8  11
BRANCH   9  27
HETATM   27  O   UNL     1       2.287   6.777  28.339  0.00  0.00    -0.360 OA
HETATM   28  H   UNL     1       3.162   6.679  27.922  0.00  0.00     0.217 HD
ENDBRANCH   9  27
BRANCH   1  29
HETATM   29  C   UNL     1      -2.184  10.586  25.067  0.00  0.00     0.066 C 
BRANCH  29  30
HETATM   30  C   UNL     1      -1.911  11.941  24.387  0.00  0.00    -0.009 C 
HETATM   31  C   UNL     1      -1.785  11.785  22.859  0.00  0.00     0.005 C 
HETATM   32  C   UNL     1      -0.788  12.855  22.442  0.00  0.00     0.000 C 
HETATM   33  C   UNL     1       0.228  12.826  23.569  0.00  0.00     0.000 C 
HETATM   34  C   UNL     1      -0.612  12.646  24.829  0.00  0.00     0.005 C 
ENDBRANCH  29  30
ENDBRANCH   1  29
TORSDOF 6
ENDMDL
MODEL 3
REMARK VINA RESULT:    -7.704      3.042      9.964
REMARK INTER + INTRA:         -10.842
REMARK INTER:                  -9.391
REMARK INTRA:                  -1.451
REMARK UNBOUND:                -0.662
REMARK  6 active torsions:
REMARK  status: ('A' for Active; 'I' for Inactive)
REMARK    1  A    between atoms: C_5  and  C_6 
REMARK    2  A    between atoms: C_6  and  C_7 
REMARK    3  A    between atoms: C_14  and  C_18 
REMARK    4  A    between atoms: C_15  and  O_17 
REMARK       I    between atoms: C_18  and  N_20 
REMARK    5  A    between atoms: N_20  and  C_22 
REMARK    6  A    between atoms: C_25  and  N_28 
ROOT
HETATM    1  C   UNL     1       2.561   6.738  26.168  0.00  0.00     0.067 A 
HETATM    2  N   UNL     1       3.505   7.014  27.086  0.00  0.00    -0.178 NA
HETATM    3  N   UNL     1       4.644   7.061  26.377  0.00  0.00    -0.277 N 
HETATM    4  H   UNL     1       5.510   7.229  26.875  0.00  0.00     0.189 HD
HETATM    5  C   UNL     1       3.113   6.670  24.856  0.00  0.00     0.019 A 
HETATM    6  C   UNL     1       4.481   6.804  25.043  0.00  0.00     0.065 A 
HETATM    7  C   UNL     1       2.637   6.446  23.549  0.00  0.00     0.035 C 
HETATM    8  C   UNL     1       3.540   6.203  22.479  0.00  0.00     0.066 C 
HETATM    9  C   UNL     1       4.911   6.232  22.761  0.00  0.00     0.083 C 
HETATM   10  C   UNL     1       5.409   6.631  24.011  0.00  0.00     0.069 C 
ENDROOT
BRANCH   8  11
HETATM   11  C   UNL     1       2.889   5.729  21.211  0.00  0.00     0.260 C 
HETATM   12  O   UNL     1       2.392   4.602  21.328  0.00  0.00    -0.267 OA
HETATM   13  N   UNL     1       2.855   6.455  19.991  0.00  0.00    -0.318 N 
HETATM   14  C   UNL     1       3.563   7.713  19.758  0.00  0.00     0.159 C 
BRANCH  13  15
HETATM   15  C   UNL     1       2.110   5.921  18.859  0.00  0.00     0.037 A 
HETATM   16  C   UNL     1       0.739   6.147  18.721  0.00  0.00     0.032 A 
HETATM   17  C   UNL     1      -0.006   5.570  17.681  0.00  0.00     0.031 A 
HETATM   18  C   UNL     1       0.570   4.742  16.716  0.00  0.00     0.030 A 
HETATM   19  C   UNL     1       1.959   4.590  16.796  0.00  0.00     0.031 A 
HETATM   20  C   UNL     1       2.716   5.168  17.844  0.00  0.00     0.032 A 
BRANCH  18  21
HETATM   21  N   UNL     1      -0.214   4.116  15.766  0.00  0.00    -0.377 N 
HETATM   22  C   UNL     1      -0.568   4.687  14.460  0.00  0.00     0.149 C 
HETATM   23  C   UNL     1      -0.086   3.769  13.326  0.00  0.00     0.187 C 
HETATM   24  O   UNL     1      -0.586   2.429  13.480  0.00  0.00    -0.388 OA
HETATM   25  C   UNL     1      -0.137   1.877  14.730  0.00  0.00     0.187 C 
HETATM   26  C   UNL     1      -0.624   2.707  15.929  0.00  0.00     0.149 C 
ENDBRANCH  18  21
ENDBRANCH  13  15
ENDBRANCH   8  11
BRANCH   9  27
HETATM   27  O   UNL     1       5.875   5.777  21.902  0.00  0.00    -0.360 OA
HETATM   28  H   UNL     1       6.552   5.335  22.447  0.00  0.00     0.217 HD
ENDBRANCH   9  27
BRANCH   1  29
HETATM   29  C   UNL     1       1.152   6.511  26.630  0.00  0.00     0.066 C 
BRANCH  29  30
HETATM   30  C   UNL     1       0.205   7.715  26.465  0.00  0.00    -0.009 C 
HETATM   31  C   UNL     1      -0.480   7.703  25.085  0.00  0.00     0.005 C 
HETATM   32  C   UNL     1      -0.671   9.170  24.734  0.00  0.00     0.000 C 
HETATM   33  C   UNL     1       0.608   9.807  25.245  0.00  0.00     0.000 C 
HETATM   34  C   UNL     1       0.880   9.098  26.568  0.00  0.00     0.005 C 
ENDBRANCH  29  30
ENDBRANCH   1  29
TORSDOF 6
ENDMDL
MODEL 4
REMARK VINA RESULT:    -7.678      3.015      9.497
REMARK INTER + INTRA:         -10.808
REMARK INTER:                  -9.848
REMARK INTRA:                  -0.960
REMARK UNBOUND:                -0.662
REMARK  6 active torsions:
REMARK  status: ('A' for Active; 'I' for Inactive)
REMARK    1  A    between atoms: C_5  and  C_6 
REMARK    2  A    between atoms: C_6  and  C_7 
REMARK    3  A    between atoms: C_14  and  C_18 
REMARK    4  A    between atoms: C_15  and  O_17 
REMARK       I    between atoms: C_18  and  N_20 
REMARK    5  A    between atoms: N_20  and  C_22 
REMARK    6  A    between atoms: C_25  and  N_28 
ROOT
HETATM    1  C   UNL     1      -0.472   9.827  27.922  0.00  0.00     0.067 A 
HETATM    2  N   UNL     1      -0.559   9.831  29.265  0.00  0.00    -0.178 NA
HETATM    3  N   UNL     1       0.311   8.886  29.651  0.00  0.00    -0.277 N 
HETATM    4  H   UNL     1       0.394   8.688  30.641  0.00  0.00     0.189 HD
HETATM    5  C   UNL     1       0.514   8.903  27.467  0.00  0.00     0.019 A 
HETATM    6  C   UNL     1       0.942   8.253  28.614  0.00  0.00     0.065 A 
HETATM    7  C   UNL     1       1.044   8.491  26.229  0.00  0.00     0.035 C 
HETATM    8  C   UNL     1       1.871   7.339  26.140  0.00  0.00     0.066 C 
HETATM    9  C   UNL     1       2.167   6.654  27.325  0.00  0.00     0.083 C 
HETATM   10  C   UNL     1       1.800   7.148  28.586  0.00  0.00     0.069 C 
ENDROOT
BRANCH   8  11
HETATM   11  C   UNL     1       2.147   6.878  24.738  0.00  0.00     0.260 C 
HETATM   12  O   UNL     1       1.129   6.467  24.167  0.00  0.00    -0.267 OA
HETATM   13  N   UNL     1       3.424   6.873  24.117  0.00  0.00    -0.318 N 
HETATM   14  C   UNL     1       4.676   7.196  24.800  0.00  0.00     0.159 C 
BRANCH  13  15
HETATM   15  C   UNL     1       3.541   6.486  22.718  0.00  0.00     0.037 A 
HETATM   16  C   UNL     1       3.590   7.442  21.702  0.00  0.00     0.032 A 
HETATM   17  C   UNL     1       3.618   7.082  20.346  0.00  0.00     0.031 A 
HETATM   18  C   UNL     1       3.606   5.751  19.923  0.00  0.00     0.030 A 
HETATM   19  C   UNL     1       3.653   4.790  20.939  0.00  0.00     0.031 A 
HETATM   20  C   UNL     1       3.623   5.147  22.310  0.00  0.00     0.032 A 
BRANCH  18  21
HETATM   21  N   UNL     1       3.538   5.440  18.579  0.00  0.00    -0.377 N 
HETATM   22  C   UNL     1       3.133   4.135  18.038  0.00  0.00     0.149 C 
HETATM   23  C   UNL     1       1.914   4.293  17.117  0.00  0.00     0.187 C 
HETATM   24  O   UNL     1       2.158   5.255  16.075  0.00  0.00    -0.388 OA
HETATM   25  C   UNL     1       2.458   6.538  16.650  0.00  0.00     0.187 C 
HETATM   26  C   UNL     1       3.704   6.484  17.549  0.00  0.00     0.149 C 
ENDBRANCH  18  21
ENDBRANCH  13  15
ENDBRANCH   8  11
BRANCH   9  27
HETATM   27  O   UNL     1       2.732   5.408  27.363  0.00  0.00    -0.360 OA
HETATM   28  H   UNL     1       3.282   5.373  28.167  0.00  0.00     0.217 HD
ENDBRANCH   9  27
BRANCH   1  29
HETATM   29  C   UNL     1      -1.398  10.709  27.137  0.00  0.00     0.066 C 
BRANCH  29  30
HETATM   30  C   UNL     1      -1.092  10.803  25.631  0.00  0.00    -0.009 C 
HETATM   31  C   UNL     1      -0.468  12.165  25.269  0.00  0.00     0.005 C 
HETATM   32  C   UNL     1      -0.955  12.453  23.858  0.00  0.00     0.000 C 
HETATM   33  C   UNL     1      -2.387  11.950  23.888  0.00  0.00     0.000 C 
HETATM   34  C   UNL     1      -2.317  10.663  24.703  0.00  0.00     0.005 C 
ENDBRANCH  29  30
ENDBRANCH   1  29
TORSDOF 6
ENDMDL
MODEL 5
REMARK VINA RESULT:    -7.637      2.944      9.635
REMARK INTER + INTRA:         -10.754
REMARK INTER:                  -9.850
REMARK INTRA:                  -0.904
REMARK UNBOUND:                -0.662
REMARK  6 active torsions:
REMARK  status: ('A' for Active; 'I' for Inactive)
REMARK    1  A    between atoms: C_5  and  C_6 
REMARK    2  A    between atoms: C_6  and  C_7 
REMARK    3  A    between atoms: C_14  and  C_18 
REMARK    4  A    between atoms: C_15  and  O_17 
REMARK       I    between atoms: C_18  and  N_20 
REMARK    5  A    between atoms: N_20  and  C_22 
REMARK    6  A    between atoms: C_25  and  N_28 
ROOT
HETATM    1  C   UNL     1       1.517   8.787  26.576  0.00  0.00     0.067 A 
HETATM    2  N   UNL     1       2.010   8.844  27.827  0.00  0.00    -0.178 NA
HETATM    3  N   UNL     1       3.157   8.151  27.756  0.00  0.00    -0.277 N 
HETATM    4  H   UNL     1       3.698   8.032  28.604  0.00  0.00     0.189 HD
HETATM    5  C   UNL     1       2.401   8.097  25.698  0.00  0.00     0.019 A 
HETATM    6  C   UNL     1       3.416   7.628  26.518  0.00  0.00     0.065 A 
HETATM    7  C   UNL     1       2.435   7.754  24.331  0.00  0.00     0.035 C 
HETATM    8  C   UNL     1       3.390   6.824  23.840  0.00  0.00     0.066 C 
HETATM    9  C   UNL     1       4.313   6.293  24.748  0.00  0.00     0.083 C 
HETATM   10  C   UNL     1       4.413   6.755  26.070  0.00  0.00     0.069 C 
ENDROOT
BRANCH   8  11
HETATM   11  C   UNL     1       3.143   6.365  22.431  0.00  0.00     0.260 C 
HETATM   12  O   UNL     1       2.479   5.322  22.384  0.00  0.00    -0.267 OA
HETATM   13  N   UNL     1       3.627   7.014  21.265  0.00  0.00    -0.318 N 
HETATM   14  C   UNL     1       4.546   8.152  21.273  0.00  0.00     0.159 C 
BRANCH  13  15
HETATM   15  C   UNL     1       3.239   6.517  19.953  0.00  0.00     0.037 A 
HETATM   16  C   UNL     1       2.526   7.315  19.055  0.00  0.00     0.032 A 
HETATM   17  C   UNL     1       2.073   6.821  17.822  0.00  0.00     0.031 A 
HETATM   18  C   UNL     1       2.309   5.509  17.408  0.00  0.00     0.030 A 
HETATM   19  C   UNL     1       3.103   4.735  18.261  0.00  0.00     0.031 A 
HETATM   20  C   UNL     1       3.562   5.227  19.508  0.00  0.00     0.032 A 
BRANCH  18  21
HETATM   21  N   UNL     1       1.764   5.033  16.231  0.00  0.00    -0.377 N 
HETATM   22  C   UNL     1       1.508   3.617  15.935  0.00  0.00     0.149 C 
HETATM   23  C   UNL     1       0.018   3.395  15.633  0.00  0.00     0.187 C 
HETATM   24  O   UNL     1      -0.443   4.257  14.577  0.00  0.00    -0.388 OA
HETATM   25  C   UNL     1      -0.259   5.633  14.950  0.00  0.00     0.187 C 
HETATM   26  C   UNL     1       1.219   5.959  15.218  0.00  0.00     0.149 C 
ENDBRANCH  18  21
ENDBRANCH  13  15
ENDBRANCH   8  11
BRANCH   9  27
HETATM   27  O   UNL     1       5.116   5.218  24.477  0.00  0.00    -0.360 OA
HETATM   28  H   UNL     1       4.572   4.578  23.981  0.00  0.00     0.217 HD
ENDBRANCH   9  27
BRANCH   1  29
HETATM   29  C   UNL     1       0.167   9.384  26.307  0.00  0.00     0.066 C 
BRANCH  29  30
HETATM   30  C   UNL     1       0.004  10.041  24.924  0.00  0.00    -0.009 C 
HETATM   31  C   UNL     1       0.708  11.411  24.867  0.00  0.00     0.005 C 
HETATM   32  C   UNL     1      -0.134  12.240  23.911  0.00  0.00     0.000 C 
HETATM   33  C   UNL     1      -1.551  11.822  24.261  0.00  0.00     0.000 C 
HETATM   34  C   UNL     1      -1.452  10.319  24.497  0.00  0.00     0.005 C 
ENDBRANCH  29  30
ENDBRANCH   1  29
TORSDOF 6
ENDMDL
MODEL 6
REMARK VINA RESULT:    -7.451      1.635      2.336
REMARK INTER + INTRA:         -10.508
REMARK INTER:                  -9.462
REMARK INTRA:                  -1.046
REMARK UNBOUND:                -0.662
REMARK  6 active torsions:
REMARK  status: ('A' for Active; 'I' for Inactive)
REMARK    1  A    between atoms: C_5  and  C_6 
REMARK    2  A    between atoms: C_6  and  C_7 
REMARK    3  A    between atoms: C_14  and  C_18 
REMARK    4  A    between atoms: C_15  and  O_17 
REMARK       I    between atoms: C_18  and  N_20 
REMARK    5  A    between atoms: N_20  and  C_22 
REMARK    6  A    between atoms: C_25  and  N_28 
ROOT
HETATM    1  C   UNL     1       3.835   5.381  19.525  0.00  0.00     0.067 A 
HETATM    2  N   UNL     1       4.408   5.763  18.369  0.00  0.00    -0.178 NA
HETATM    3  N   UNL     1       4.873   6.995  18.627  0.00  0.00    -0.277 N 
HETATM    4  H   UNL     1       5.327   7.502  17.876  0.00  0.00     0.189 HD
HETATM    5  C   UNL     1       3.999   6.370  20.538  0.00  0.00     0.019 A 
HETATM    6  C   UNL     1       4.605   7.437  19.894  0.00  0.00     0.065 A 
HETATM    7  C   UNL     1       3.649   6.521  21.895  0.00  0.00     0.035 C 
HETATM    8  C   UNL     1       3.769   7.781  22.540  0.00  0.00     0.066 C 
HETATM    9  C   UNL     1       4.277   8.851  21.794  0.00  0.00     0.083 C 
HETATM   10  C   UNL     1       4.798   8.682  20.502  0.00  0.00     0.069 C 
ENDROOT
BRANCH   8  11
HETATM   11  C   UNL     1       3.124   7.850  23.895  0.00  0.00     0.260 C 
HETATM   12  O   UNL     1       2.144   8.606  23.913  0.00  0.00    -0.267 OA
HETATM   13  N   UNL     1       3.579   7.164  25.051  0.00  0.00    -0.318 N 
HETATM   14  C   UNL     1       4.818   6.391  25.119  0.00  0.00     0.159 C 
BRANCH  13  15
HETATM   15  C   UNL     1       2.808   7.244  26.284  0.00  0.00     0.037 A 
HETATM   16  C   UNL     1       2.698   8.441  26.995  0.00  0.00     0.032 A 
HETATM   17  C   UNL     1       2.029   8.513  28.226  0.00  0.00     0.031 A 
HETATM   18  C   UNL     1       1.424   7.402  28.817  0.00  0.00     0.030 A 
HETATM   19  C   UNL     1       1.449   6.223  28.063  0.00  0.00     0.031 A 
HETATM   20  C   UNL     1       2.125   6.143  26.820  0.00  0.00     0.032 A 
BRANCH  18  21
HETATM   21  N   UNL     1       0.859   7.493  30.074  0.00  0.00    -0.377 N 
HETATM   22  C   UNL     1       0.483   6.346  30.912  0.00  0.00     0.149 C 
HETATM   23  C   UNL     1       1.227   6.399  32.255  0.00  0.00     0.187 C 
HETATM   24  O   UNL     1       1.014   7.651  32.931  0.00  0.00    -0.388 OA
HETATM   25  C   UNL     1       1.482   8.737  32.113  0.00  0.00     0.187 C 
HETATM   26  C   UNL     1       0.748   8.793  30.763  0.00  0.00     0.149 C 
ENDBRANCH  18  21
ENDBRANCH  13  15
ENDBRANCH   8  11
BRANCH   9  27
HETATM   27  O   UNL     1       4.215  10.158  22.198  0.00  0.00    -0.360 OA
HETATM   28  H   UNL     1       4.832  10.657  21.632  0.00  0.00     0.217 HD
ENDBRANCH   9  27
BRANCH   1  29
HETATM   29  C   UNL     1       3.110   4.069  19.571  0.00  0.00     0.066 C 
BRANCH  29  30
HETATM   30  C   UNL     1       1.649   4.109  19.087  0.00  0.00    -0.009 C 
HETATM   31  C   UNL     1       1.563   4.016  17.551  0.00  0.00     0.005 C 
HETATM   32  C   UNL     1       0.338   4.835  17.181  0.00  0.00     0.000 C 
HETATM   33  C   UNL     1       0.415   6.009  18.140  0.00  0.00     0.000 C 
HETATM   34  C   UNL     1       0.872   5.390  19.457  0.00  0.00     0.005 C 
ENDBRANCH  29  30
ENDBRANCH   1  29
TORSDOF 6
ENDMDL
MODEL 7
REMARK VINA RESULT:    -7.435      5.361     11.036
REMARK INTER + INTRA:         -10.487
REMARK INTER:                  -9.825
REMARK INTRA:                  -0.662
REMARK UNBOUND:                -0.662
REMARK  6 active torsions:
REMARK  status: ('A' for Active; 'I' for Inactive)
REMARK    1  A    between atoms: C_5  and  C_6 
REMARK    2  A    between atoms: C_6  and  C_7 
REMARK    3  A    between atoms: C_14  and  C_18 
REMARK    4  A    between atoms: C_15  and  O_17 
REMARK       I    between atoms: C_18  and  N_20 
REMARK    5  A    between atoms: N_20  and  C_22 
REMARK    6  A    between atoms: C_25  and  N_28 
ROOT
HETATM    1  C   UNL     1       4.852   6.409  20.671  0.00  0.00     0.067 A 
HETATM    2  N   UNL     1       5.598   7.472  21.022  0.00  0.00    -0.178 NA
HETATM    3  N   UNL     1       4.991   8.509  20.424  0.00  0.00    -0.277 N 
HETATM    4  H   UNL     1       5.403   9.429  20.527  0.00  0.00     0.189 HD
HETATM    5  C   UNL     1       3.727   6.799  19.888  0.00  0.00     0.019 A 
HETATM    6  C   UNL     1       3.897   8.159  19.680  0.00  0.00     0.065 A 
HETATM    7  C   UNL     1       2.629   6.162  19.275  0.00  0.00     0.035 C 
HETATM    8  C   UNL     1       1.813   6.859  18.344  0.00  0.00     0.066 C 
HETATM    9  C   UNL     1       2.114   8.202  18.087  0.00  0.00     0.083 C 
HETATM   10  C   UNL     1       3.086   8.904  18.817  0.00  0.00     0.069 C 
ENDROOT
BRANCH   8  11
HETATM   11  C   UNL     1       0.851   5.989  17.587  0.00  0.00     0.260 C 
HETATM   12  O   UNL     1      -0.297   6.450  17.579  0.00  0.00    -0.267 OA
HETATM   13  N   UNL     1       1.183   4.757  16.964  0.00  0.00    -0.318 N 
HETATM   14  C   UNL     1       2.481   4.095  17.081  0.00  0.00     0.159 C 
BRANCH  13  15
HETATM   15  C   UNL     1       0.175   4.054  16.181  0.00  0.00     0.037 A 
HETATM   16  C   UNL     1      -0.130   4.442  14.875  0.00  0.00     0.032 A 
HETATM   17  C   UNL     1      -1.156   3.828  14.140  0.00  0.00     0.031 A 
HETATM   18  C   UNL     1      -1.931   2.789  14.659  0.00  0.00     0.030 A 
HETATM   19  C   UNL     1      -1.565   2.334  15.931  0.00  0.00     0.031 A 
HETATM   20  C   UNL     1      -0.533   2.951  16.679  0.00  0.00     0.032 A 
BRANCH  18  21
HETATM   21  N   UNL     1      -2.993   2.276  13.940  0.00  0.00    -0.377 N 
HETATM   22  C   UNL     1      -3.974   1.314  14.460  0.00  0.00     0.149 C 
HETATM   23  C   UNL     1      -5.393   1.896  14.371  0.00  0.00     0.187 C 
HETATM   24  O   UNL     1      -5.711   2.317  13.033  0.00  0.00    -0.388 OA
HETATM   25  C   UNL     1      -4.782   3.326  12.601  0.00  0.00     0.187 C 
HETATM   26  C   UNL     1      -3.334   2.808  12.606  0.00  0.00     0.149 C 
ENDBRANCH  18  21
ENDBRANCH  13  15
ENDBRANCH   8  11
BRANCH   9  27
HETATM   27  O   UNL     1       1.582   8.916  17.047  0.00  0.00    -0.360 OA
HETATM   28  H   UNL     1       1.478   9.834  17.360  0.00  0.00     0.217 HD
ENDBRANCH   9  27
BRANCH   1  29
HETATM   29  C   UNL     1       5.305   5.042  21.088  0.00  0.00     0.066 C 
BRANCH  29  30
HETATM   30  C   UNL     1       4.721   4.536  22.421  0.00  0.00    -0.009 C 
HETATM   31  C   UNL     1       5.622   4.923  23.610  0.00  0.00     0.005 C 
HETATM   32  C   UNL     1       5.450   3.790  24.610  0.00  0.00     0.000 C 
HETATM   33  C   UNL     1       5.388   2.562  23.720  0.00  0.00     0.000 C 
HETATM   34  C   UNL     1       4.552   3.006  22.524  0.00  0.00     0.005 C 
ENDBRANCH  29  30
ENDBRANCH   1  29
TORSDOF 6
ENDMDL
MODEL 8
REMARK VINA RESULT:    -7.382      4.092     10.826
REMARK INTER + INTRA:         -10.417
REMARK INTER:                  -9.496
REMARK INTRA:                  -0.921
REMARK UNBOUND:                -0.662
REMARK  6 active torsions:
REMARK  status: ('A' for Active; 'I' for Inactive)
REMARK    1  A    between atoms: C_5  and  C_6 
REMARK    2  A    between atoms: C_6  and  C_7 
REMARK    3  A    between atoms: C_14  and  C_18 
REMARK    4  A    between atoms: C_15  and  O_17 
REMARK       I    between atoms: C_18  and  N_20 
REMARK    5  A    between atoms: N_20  and  C_22 
REMARK    6  A    between atoms: C_25  and  N_28 
ROOT
HETATM    1  C   UNL     1       3.809   6.431  22.542  0.00  0.00     0.067 A 
HETATM    2  N   UNL     1       5.009   6.845  22.988  0.00  0.00    -0.178 NA
HETATM    3  N   UNL     1       5.705   7.093  21.868  0.00  0.00    -0.277 N 
HETATM    4  H   UNL     1       6.668   7.394  21.960  0.00  0.00     0.189 HD
HETATM    5  C   UNL     1       3.738   6.478  21.120  0.00  0.00     0.019 A 
HETATM    6  C   UNL     1       5.016   6.833  20.715  0.00  0.00     0.065 A 
HETATM    7  C   UNL     1       2.777   6.198  20.127  0.00  0.00     0.035 C 
HETATM    8  C   UNL     1       3.148   6.126  18.758  0.00  0.00     0.066 C 
HETATM    9  C   UNL     1       4.485   6.378  18.428  0.00  0.00     0.083 C 
HETATM   10  C   UNL     1       5.416   6.834  19.375  0.00  0.00     0.069 C 
ENDROOT
BRANCH   8  11
HETATM   11  C   UNL     1       2.085   5.572  17.854  0.00  0.00     0.260 C 
HETATM   12  O   UNL     1       1.227   6.414  17.562  0.00  0.00    -0.267 OA
HETATM   13  N   UNL     1       2.025   4.230  17.392  0.00  0.00    -0.318 N 
HETATM   14  C   UNL     1       2.919   3.163  17.836  0.00  0.00     0.159 C 
BRANCH  13  15
HETATM   15  C   UNL     1       0.989   3.843  16.444  0.00  0.00     0.037 A 
HETATM   16  C   UNL     1       1.030   4.265  15.113  0.00  0.00     0.032 A 
HETATM   17  C   UNL     1      -0.004   3.969  14.211  0.00  0.00     0.031 A 
HETATM   18  C   UNL     1      -1.132   3.231  14.577  0.00  0.00     0.030 A 
HETATM   19  C   UNL     1      -1.130   2.727  15.882  0.00  0.00     0.031 A 
HETATM   20  C   UNL     1      -0.092   3.023  16.799  0.00  0.00     0.032 A 
BRANCH  18  21
HETATM   21  N   UNL     1      -2.170   3.044  13.686  0.00  0.00    -0.377 N 
HETATM   22  C   UNL     1      -3.200   2.002  13.802  0.00  0.00     0.149 C 
HETATM   23  C   UNL     1      -4.597   2.637  13.870  0.00  0.00     0.187 C 
HETATM   24  O   UNL     1      -4.838   3.508  12.751  0.00  0.00    -0.388 OA
HETATM   25  C   UNL     1      -3.864   4.565  12.731  0.00  0.00     0.187 C 
HETATM   26  C   UNL     1      -2.431   4.019  12.609  0.00  0.00     0.149 C 
ENDBRANCH  18  21
ENDBRANCH  13  15
ENDBRANCH   8  11
BRANCH   9  27
HETATM   27  O   UNL     1       5.032   6.104  17.203  0.00  0.00    -0.360 OA
HETATM   28  H   UNL     1       5.950   6.433  17.225  0.00  0.00     0.217 HD
ENDBRANCH   9  27
BRANCH   1  29
HETATM   29  C   UNL     1       2.791   5.965  23.541  0.00  0.00     0.066 C 
BRANCH  29  30
HETATM   30  C   UNL     1       2.701   6.809  24.827  0.00  0.00    -0.009 C 
HETATM   31  C   UNL     1       1.927   6.064  25.932  0.00  0.00     0.005 C 
HETATM   32  C   UNL     1       1.231   7.160  26.724  0.00  0.00     0.000 C 
HETATM   33  C   UNL     1       0.803   8.135  25.642  0.00  0.00     0.000 C 
HETATM   34  C   UNL     1       1.979   8.163  24.673  0.00  0.00     0.005 C 
ENDBRANCH  29  30
ENDBRANCH   1  29
TORSDOF 6
ENDMDL
