MODEL 1
REMARK VINA RESULT:    -8.388      0.000      0.000
REMARK INTER + INTRA:         -14.639
REMARK INTER:                 -11.213
REMARK INTRA:                  -3.425
REMARK UNBOUND:                -3.308
REMARK  7 active torsions:
REMARK  status: ('A' for Active; 'I' for Inactive)
REMARK    1  A    between atoms: C_7  and  N_8 
REMARK    2  A    between atoms: C_14  and  C_15 
REMARK    3  A    between atoms: C_16  and  O_17 
REMARK    4  A    between atoms: C_19  and  O_20 
REMARK    5  A    between atoms: C_22  and  C_23 
REMARK       I    between atoms: C_23  and  N_25 
REMARK    6  A    between atoms: N_25  and  C_27 
REMARK    7  A    between atoms: C_27  and  C_28 
ROOT
HETATM    1  C   UNL     1       3.802   7.159  18.126  0.00  0.00     0.046 A 
HETATM    2  C   UNL     1       2.806   8.132  18.367  0.00  0.00     0.082 A 
HETATM    3  C   UNL     1       1.546   8.037  17.792  0.00  0.00     0.075 A 
HETATM    4  C   UNL     1       1.248   6.958  16.966  0.00  0.00     0.084 A 
HETATM    5  C   UNL     1       3.506   6.098  17.240  0.00  0.00     0.038 A 
HETATM    6  C   UNL     1       2.204   5.953  16.694  0.00  0.00     0.066 A 
ENDROOT
BRANCH   1   7
HETATM    7  C   UNL     1       5.061   7.266  18.932  0.00  0.00     0.172 A 
HETATM    8  N   UNL     1       5.443   6.509  20.016  0.00  0.00    -0.244 N 
HETATM    9  C   UNL     1       6.666   7.038  20.407  0.00  0.00     0.349 A 
HETATM   10  O   UNL     1       7.363   6.788  21.385  0.00  0.00    -0.245 OA
HETATM   11  N   UNL     1       6.945   8.052  19.505  0.00  0.00    -0.226 N 
HETATM   12  H   UNL     1       7.680   8.737  19.627  0.00  0.00     0.194 HD
HETATM   13  N   UNL     1       5.936   8.192  18.614  0.00  0.00    -0.151 NA
BRANCH   8  14
HETATM   14  C   UNL     1       4.751   5.634  20.887  0.00  0.00     0.051 A 
HETATM   15  C   UNL     1       3.870   6.071  21.895  0.00  0.00    -0.035 A 
HETATM   16  C   UNL     1       3.704   7.518  22.275  0.00  0.00     0.050 C 
HETATM   17  C   UNL     1       3.255   5.116  22.730  0.00  0.00     0.009 A 
HETATM   18  C   UNL     1       3.586   3.765  22.654  0.00  0.00     0.001 A 
HETATM   19  C   UNL     1       4.532   3.341  21.732  0.00  0.00     0.002 A 
HETATM   20  C   UNL     1       5.094   4.264  20.849  0.00  0.00     0.031 A 
ENDBRANCH   8  14
ENDBRANCH   1   7
BRANCH   2  21
HETATM   21  O   UNL     1       2.963   9.207  19.207  0.00  0.00    -0.360 OA
HETATM   22  H   UNL     1       3.822   9.113  19.674  0.00  0.00     0.217 HD
ENDBRANCH   2  21
BRANCH   6  23
HETATM   23  C   UNL     1       1.698   4.620  16.221  0.00  0.00     0.256 C 
HETATM   24  O   UNL     1       1.353   4.583  15.034  0.00  0.00    -0.267 OA
HETATM   25  N   UNL     1       1.505   3.502  17.042  0.00  0.00    -0.348 N 
HETATM   26  C   UNL     1       0.774   2.379  16.453  0.00  0.00     0.153 C 
BRANCH  25  27
HETATM   27  C   UNL     1       1.934   3.322  18.428  0.00  0.00     0.164 C 
BRANCH  27  28
HETATM   28  C   UNL     1       2.800   2.114  18.736  0.00  0.00    -0.040 A 
HETATM   29  C   UNL     1       2.369   1.206  19.724  0.00  0.00     0.009 A 
HETATM   30  C   UNL     1       3.217   0.209  20.207  0.00  0.00     0.001 A 
HETATM   31  C   UNL     1       4.516   0.106  19.718  0.00  0.00     0.007 A 
HETATM   32  C   UNL     1       4.962   0.973  18.714  0.00  0.00    -0.061 A 
HETATM   33  C   UNL     1       4.097   1.968  18.220  0.00  0.00     0.015 A 
HETATM   34  C   UNL     1       6.396   0.914  18.271  0.00  0.00     0.048 C 
ENDBRANCH  27  28
ENDBRANCH  25  27
ENDBRANCH   6  23
BRANCH   4  35
HETATM   35  O   UNL     1      -0.026   6.884  16.468  0.00  0.00    -0.360 OA
HETATM   36  H   UNL     1      -0.129   7.532  15.745  0.00  0.00     0.217 HD
ENDBRANCH   4  35
TORSDOF 7
ENDMDL
MODEL 2
REMARK VINA RESULT:    -7.971      4.115      7.893
REMARK INTER + INTRA:         -14.075
REMARK INTER:                 -11.890
REMARK INTRA:                  -2.185
REMARK UNBOUND:                -3.308
REMARK  7 active torsions:
REMARK  status: ('A' for Active; 'I' for Inactive)
REMARK    1  A    between atoms: C_7  and  N_8 
REMARK    2  A    between atoms: C_14  and  C_15 
REMARK    3  A    between atoms: C_16  and  O_17 
REMARK    4  A    between atoms: C_19  and  O_20 
REMARK    5  A    between atoms: C_22  and  C_23 
REMARK       I    between atoms: C_23  and  N_25 
REMARK    6  A    between atoms: N_25  and  C_27 
REMARK    7  A    between atoms: C_27  and  C_28 
ROOT
HETATM    1  C   UNL     1       3.983   7.982  22.021  0.00  0.00     0.046 A 
HETATM    2  C   UNL     1       4.217   9.324  22.399  0.00  0.00     0.082 A 
HETATM    3  C   UNL     1       3.786   9.819  23.621  0.00  0.00     0.075 A 
HETATM    4  C   UNL     1       3.114   8.978  24.504  0.00  0.00     0.084 A 
HETATM    5  C   UNL     1       3.251   7.154  22.902  0.00  0.00     0.038 A 
HETATM    6  C   UNL     1       2.857   7.627  24.181  0.00  0.00     0.066 A 
ENDROOT
BRANCH   1   7
HETATM    7  C   UNL     1       4.643   7.509  20.761  0.00  0.00     0.172 A 
HETATM    8  N   UNL     1       4.049   6.990  19.634  0.00  0.00    -0.244 N 
HETATM    9  C   UNL     1       5.103   6.681  18.786  0.00  0.00     0.349 A 
HETATM   10  O   UNL     1       5.109   6.096  17.707  0.00  0.00    -0.245 OA
HETATM   11  N   UNL     1       6.253   7.072  19.452  0.00  0.00    -0.226 N 
HETATM   12  H   UNL     1       7.191   6.820  19.168  0.00  0.00     0.194 HD
HETATM   13  N   UNL     1       5.953   7.562  20.678  0.00  0.00    -0.151 NA
BRANCH   8  14
HETATM   14  C   UNL     1       2.759   6.474  19.361  0.00  0.00     0.051 A 
HETATM   15  C   UNL     1       1.840   7.091  18.490  0.00  0.00    -0.035 A 
HETATM   16  C   UNL     1       2.058   8.455  17.892  0.00  0.00     0.050 C 
HETATM   17  C   UNL     1       0.568   6.510  18.311  0.00  0.00     0.009 A 
HETATM   18  C   UNL     1       0.161   5.409  19.062  0.00  0.00     0.001 A 
HETATM   19  C   UNL     1       1.024   4.861  19.999  0.00  0.00     0.002 A 
HETATM   20  C   UNL     1       2.314   5.379  20.133  0.00  0.00     0.031 A 
ENDBRANCH   8  14
ENDBRANCH   1   7
BRANCH   2  21
HETATM   21  O   UNL     1       4.917  10.229  21.639  0.00  0.00    -0.360 OA
HETATM   22  H   UNL     1       4.322  10.570  20.935  0.00  0.00     0.217 HD
ENDBRANCH   2  21
BRANCH   6  23
HETATM   23  C   UNL     1       2.584   6.680  25.314  0.00  0.00     0.256 C 
HETATM   24  O   UNL     1       3.589   6.167  25.820  0.00  0.00    -0.267 OA
HETATM   25  N   UNL     1       1.308   6.285  25.736  0.00  0.00    -0.348 N 
HETATM   26  C   UNL     1       1.250   5.172  26.684  0.00  0.00     0.153 C 
BRANCH  25  27
HETATM   27  C   UNL     1       0.018   6.842  25.332  0.00  0.00     0.164 C 
BRANCH  27  28
HETATM   28  C   UNL     1      -0.276   8.275  25.737  0.00  0.00    -0.040 A 
HETATM   29  C   UNL     1      -0.359   8.589  27.108  0.00  0.00     0.009 A 
HETATM   30  C   UNL     1      -0.844   9.826  27.537  0.00  0.00     0.001 A 
HETATM   31  C   UNL     1      -1.263  10.769  26.604  0.00  0.00     0.007 A 
HETATM   32  C   UNL     1      -1.163  10.498  25.234  0.00  0.00    -0.061 A 
HETATM   33  C   UNL     1      -0.660   9.255  24.807  0.00  0.00     0.015 A 
HETATM   34  C   UNL     1      -1.713  11.484  24.245  0.00  0.00     0.048 C 
ENDBRANCH  27  28
ENDBRANCH  25  27
ENDBRANCH   6  23
BRANCH   4  35
HETATM   35  O   UNL     1       2.758   9.503  25.718  0.00  0.00    -0.360 OA
HETATM   36  H   UNL     1       2.270   8.830  26.230  0.00  0.00     0.217 HD
ENDBRANCH   4  35
TORSDOF 7
ENDMDL
MODEL 3
REMARK VINA RESULT:    -7.808      4.114      7.876
REMARK INTER + INTRA:         -13.855
REMARK INTER:                 -11.395
REMARK INTRA:                  -2.460
REMARK UNBOUND:                -3.308
REMARK  7 active torsions:
REMARK  status: ('A' for Active; 'I' for Inactive)
REMARK    1  A    between atoms: C_7  and  N_8 
REMARK    2  A    between atoms: C_14  and  C_15 
REMARK    3  A    between atoms: C_16  and  O_17 
REMARK    4  A    between atoms: C_19  and  O_20 
REMARK    5  A    between atoms: C_22  and  C_23 
REMARK       I    between atoms: C_23  and  N_25 
REMARK    6  A    between atoms: N_25  and  C_27 
REMARK    7  A    between atoms: C_27  and  C_28 
ROOT
HETATM    1  C   UNL     1       3.979   7.853  22.163  0.00  0.00     0.046 A 
HETATM    2  C   UNL     1       4.076   9.220  22.508  0.00  0.00     0.082 A 
HETATM    3  C   UNL     1       3.627   9.691  23.734  0.00  0.00     0.075 A 
HETATM    4  C   UNL     1       3.077   8.801  24.652  0.00  0.00     0.084 A 
HETATM    5  C   UNL     1       3.367   6.969  23.080  0.00  0.00     0.038 A 
HETATM    6  C   UNL     1       2.960   7.423  24.361  0.00  0.00     0.066 A 
ENDROOT
BRANCH   1   7
HETATM    7  C   UNL     1       4.651   7.428  20.892  0.00  0.00     0.172 A 
HETATM    8  N   UNL     1       4.068   6.955  19.739  0.00  0.00    -0.244 N 
HETATM    9  C   UNL     1       5.130   6.677  18.890  0.00  0.00     0.349 A 
HETATM   10  O   UNL     1       5.146   6.135  17.789  0.00  0.00    -0.245 OA
HETATM   11  N   UNL     1       6.274   7.037  19.584  0.00  0.00    -0.226 N 
HETATM   12  H   UNL     1       7.214   6.794  19.299  0.00  0.00     0.194 HD
HETATM   13  N   UNL     1       5.962   7.480  20.824  0.00  0.00    -0.151 NA
BRANCH   8  14
HETATM   14  C   UNL     1       2.779   6.455  19.432  0.00  0.00     0.051 A 
HETATM   15  C   UNL     1       1.888   7.087  18.543  0.00  0.00    -0.035 A 
HETATM   16  C   UNL     1       2.134   8.453  17.961  0.00  0.00     0.050 C 
HETATM   17  C   UNL     1       0.615   6.521  18.331  0.00  0.00     0.009 A 
HETATM   18  C   UNL     1       0.179   5.419  19.065  0.00  0.00     0.001 A 
HETATM   19  C   UNL     1       1.013   4.856  20.018  0.00  0.00     0.002 A 
HETATM   20  C   UNL     1       2.305   5.359  20.186  0.00  0.00     0.031 A 
ENDBRANCH   8  14
ENDBRANCH   1   7
BRANCH   2  21
HETATM   21  O   UNL     1       4.650  10.180  21.712  0.00  0.00    -0.360 OA
HETATM   22  H   UNL     1       5.300  10.682  22.250  0.00  0.00     0.217 HD
ENDBRANCH   2  21
BRANCH   6  23
HETATM   23  C   UNL     1       2.824   6.477  25.519  0.00  0.00     0.256 C 
HETATM   24  O   UNL     1       3.888   6.165  26.068  0.00  0.00    -0.267 OA
HETATM   25  N   UNL     1       1.626   5.873  25.922  0.00  0.00    -0.348 N 
HETATM   26  C   UNL     1       1.737   4.796  26.906  0.00  0.00     0.153 C 
BRANCH  25  27
HETATM   27  C   UNL     1       0.271   6.180  25.468  0.00  0.00     0.164 C 
BRANCH  27  28
HETATM   28  C   UNL     1      -0.309   7.524  25.870  0.00  0.00    -0.040 A 
HETATM   29  C   UNL     1      -0.557   8.482  24.867  0.00  0.00     0.009 A 
HETATM   30  C   UNL     1      -0.875   9.802  25.193  0.00  0.00     0.001 A 
HETATM   31  C   UNL     1      -0.942  10.191  26.527  0.00  0.00     0.007 A 
HETATM   32  C   UNL     1      -0.731   9.254  27.546  0.00  0.00    -0.061 A 
HETATM   33  C   UNL     1      -0.426   7.921  27.212  0.00  0.00     0.015 A 
HETATM   34  C   UNL     1      -0.707   9.711  28.976  0.00  0.00     0.048 C 
ENDBRANCH  27  28
ENDBRANCH  25  27
ENDBRANCH   6  23
BRANCH   4  35
HETATM   35  O   UNL     1       2.700   9.309  25.867  0.00  0.00    -0.360 OA
HETATM   36  H   UNL     1       1.772   9.064  26.046  0.00  0.00     0.217 HD
ENDBRANCH   4  35
TORSDOF 7
ENDMDL
MODEL 4
REMARK VINA RESULT:    -7.791      4.091      7.915
REMARK INTER + INTRA:         -13.831
REMARK INTER:                 -11.490
REMARK INTRA:                  -2.341
REMARK UNBOUND:                -3.308
REMARK  7 active torsions:
REMARK  status: ('A' for Active; 'I' for Inactive)
REMARK    1  A    between atoms: C_7  and  N_8 
REMARK    2  A    between atoms: C_14  and  C_15 
REMARK    3  A    between atoms: C_16  and  O_17 
REMARK    4  A    between atoms: C_19  and  O_20 
REMARK    5  A    between atoms: C_22  and  C_23 
REMARK       I    between atoms: C_23  and  N_25 
REMARK    6  A    between atoms: N_25  and  C_27 
REMARK    7  A    between atoms: C_27  and  C_28 
ROOT
HETATM    1  C   UNL     1       3.986   7.978  22.015  0.00  0.00     0.046 A 
HETATM    2  C   UNL     1       4.246   9.316  22.389  0.00  0.00     0.082 A 
HETATM    3  C   UNL     1       3.837   9.817  23.617  0.00  0.00     0.075 A 
HETATM    4  C   UNL     1       3.163   8.987  24.508  0.00  0.00     0.084 A 
HETATM    5  C   UNL     1       3.252   7.161  22.905  0.00  0.00     0.038 A 
HETATM    6  C   UNL     1       2.881   7.640  24.188  0.00  0.00     0.066 A 
ENDROOT
BRANCH   1   7
HETATM    7  C   UNL     1       4.623   7.494  20.747  0.00  0.00     0.172 A 
HETATM    8  N   UNL     1       4.006   7.011  19.617  0.00  0.00    -0.244 N 
HETATM    9  C   UNL     1       5.044   6.672  18.760  0.00  0.00     0.349 A 
HETATM   10  O   UNL     1       5.024   6.100  17.675  0.00  0.00    -0.245 OA
HETATM   11  N   UNL     1       6.211   7.012  19.427  0.00  0.00    -0.226 N 
HETATM   12  H   UNL     1       7.137   6.728  19.136  0.00  0.00     0.194 HD
HETATM   13  N   UNL     1       5.934   7.499  20.659  0.00  0.00    -0.151 NA
BRANCH   8  14
HETATM   14  C   UNL     1       2.696   6.548  19.343  0.00  0.00     0.051 A 
HETATM   15  C   UNL     1       2.176   5.338  19.843  0.00  0.00    -0.035 A 
HETATM   16  C   UNL     1       3.010   4.321  20.574  0.00  0.00     0.050 C 
HETATM   17  C   UNL     1       0.868   4.953  19.484  0.00  0.00     0.009 A 
HETATM   18  C   UNL     1       0.126   5.684  18.558  0.00  0.00     0.001 A 
HETATM   19  C   UNL     1       0.674   6.819  17.982  0.00  0.00     0.002 A 
HETATM   20  C   UNL     1       1.938   7.254  18.384  0.00  0.00     0.031 A 
ENDBRANCH   8  14
ENDBRANCH   1   7
BRANCH   2  21
HETATM   21  O   UNL     1       4.951  10.210  21.621  0.00  0.00    -0.360 OA
HETATM   22  H   UNL     1       5.834  10.342  22.030  0.00  0.00     0.217 HD
ENDBRANCH   2  21
BRANCH   6  23
HETATM   23  C   UNL     1       2.607   6.698  25.325  0.00  0.00     0.256 C 
HETATM   24  O   UNL     1       3.611   6.188  25.836  0.00  0.00    -0.267 OA
HETATM   25  N   UNL     1       1.331   6.302  25.745  0.00  0.00    -0.348 N 
HETATM   26  C   UNL     1       1.272   5.193  26.698  0.00  0.00     0.153 C 
BRANCH  25  27
HETATM   27  C   UNL     1       0.041   6.855  25.336  0.00  0.00     0.164 C 
BRANCH  27  28
HETATM   28  C   UNL     1      -0.244   8.299  25.705  0.00  0.00    -0.040 A 
HETATM   29  C   UNL     1      -0.341   8.644  27.067  0.00  0.00     0.009 A 
HETATM   30  C   UNL     1      -0.818   9.894  27.464  0.00  0.00     0.001 A 
HETATM   31  C   UNL     1      -1.217  10.821  26.506  0.00  0.00     0.007 A 
HETATM   32  C   UNL     1      -1.103  10.519  25.143  0.00  0.00    -0.061 A 
HETATM   33  C   UNL     1      -0.607   9.262  24.749  0.00  0.00     0.015 A 
HETATM   34  C   UNL     1      -1.631  11.489  24.126  0.00  0.00     0.048 C 
ENDBRANCH  27  28
ENDBRANCH  25  27
ENDBRANCH   6  23
BRANCH   4  35
HETATM   35  O   UNL     1       2.831   9.517  25.726  0.00  0.00    -0.360 OA
HETATM   36  H   UNL     1       2.810   8.805  26.394  0.00  0.00     0.217 HD
ENDBRANCH   4  35
TORSDOF 7
ENDMDL
MODEL 5
REMARK VINA RESULT:    -7.694      1.765      3.107
REMARK INTER + INTRA:         -13.700
REMARK INTER:                 -11.278
REMARK INTRA:                  -2.423
REMARK UNBOUND:                -3.308
REMARK  7 active torsions:
REMARK  status: ('A' for Active; 'I' for Inactive)
REMARK    1  A    between atoms: C_7  and  N_8 
REMARK    2  A    between atoms: C_14  and  C_15 
REMARK    3  A    between atoms: C_16  and  O_17 
REMARK    4  A    between atoms: C_19  and  O_20 
REMARK    5  A    between atoms: C_22  and  C_23 
REMARK       I    between atoms: C_23  and  N_25 
REMARK    6  A    between atoms: N_25  and  C_27 
REMARK    7  A    between atoms: C_27  and  C_28 
ROOT
HETATM    1  C   UNL     1       3.673   7.025  18.048  0.00  0.00     0.046 A 
HETATM    2  C   UNL     1       2.686   8.014  18.266  0.00  0.00     0.082 A 
HETATM    3  C   UNL     1       1.444   7.946  17.651  0.00  0.00     0.075 A 
HETATM    4  C   UNL     1       1.154   6.879  16.806  0.00  0.00     0.084 A 
HETATM    5  C   UNL     1       3.387   5.977  17.145  0.00  0.00     0.038 A 
HETATM    6  C   UNL     1       2.101   5.859  16.557  0.00  0.00     0.066 A 
ENDROOT
BRANCH   1   7
HETATM    7  C   UNL     1       4.907   7.104  18.895  0.00  0.00     0.172 A 
HETATM    8  N   UNL     1       5.250   6.321  19.973  0.00  0.00    -0.244 N 
HETATM    9  C   UNL     1       6.464   6.830  20.413  0.00  0.00     0.349 A 
HETATM   10  O   UNL     1       7.128   6.553  21.406  0.00  0.00    -0.245 OA
HETATM   11  N   UNL     1       6.779   7.861  19.543  0.00  0.00    -0.226 N 
HETATM   12  H   UNL     1       7.515   8.538  19.702  0.00  0.00     0.194 HD
HETATM   13  N   UNL     1       5.799   8.030  18.624  0.00  0.00    -0.151 NA
BRANCH   8  14
HETATM   14  C   UNL     1       4.524   5.432  20.803  0.00  0.00     0.051 A 
HETATM   15  C   UNL     1       4.450   4.043  20.581  0.00  0.00    -0.035 A 
HETATM   16  C   UNL     1       4.983   3.375  19.342  0.00  0.00     0.050 C 
HETATM   17  C   UNL     1       3.673   3.251  21.451  0.00  0.00     0.009 A 
HETATM   18  C   UNL     1       2.890   3.824  22.450  0.00  0.00     0.001 A 
HETATM   19  C   UNL     1       2.877   5.202  22.606  0.00  0.00     0.002 A 
HETATM   20  C   UNL     1       3.698   5.994  21.801  0.00  0.00     0.031 A 
ENDBRANCH   8  14
ENDBRANCH   1   7
BRANCH   2  21
HETATM   21  O   UNL     1       2.835   9.080  19.119  0.00  0.00    -0.360 OA
HETATM   22  H   UNL     1       3.795   9.264  19.221  0.00  0.00     0.217 HD
ENDBRANCH   2  21
BRANCH   6  23
HETATM   23  C   UNL     1       1.587   4.539  16.058  0.00  0.00     0.256 C 
HETATM   24  O   UNL     1       1.539   4.429  14.827  0.00  0.00    -0.267 OA
HETATM   25  N   UNL     1       1.083   3.518  16.872  0.00  0.00    -0.348 N 
HETATM   26  C   UNL     1       0.403   2.415  16.191  0.00  0.00     0.153 C 
BRANCH  25  27
HETATM   27  C   UNL     1       1.142   3.422  18.330  0.00  0.00     0.164 C 
BRANCH  27  28
HETATM   28  C   UNL     1       0.035   2.647  19.021  0.00  0.00    -0.040 A 
HETATM   29  C   UNL     1       0.330   1.379  19.558  0.00  0.00     0.009 A 
HETATM   30  C   UNL     1      -0.685   0.529  20.001  0.00  0.00     0.001 A 
HETATM   31  C   UNL     1      -2.015   0.928  19.908  0.00  0.00     0.007 A 
HETATM   32  C   UNL     1      -2.337   2.196  19.409  0.00  0.00    -0.061 A 
HETATM   33  C   UNL     1      -1.308   3.055  18.977  0.00  0.00     0.015 A 
HETATM   34  C   UNL     1      -3.778   2.571  19.221  0.00  0.00     0.048 C 
ENDBRANCH  27  28
ENDBRANCH  25  27
ENDBRANCH   6  23
BRANCH   4  35
HETATM   35  O   UNL     1      -0.105   6.831  16.268  0.00  0.00    -0.360 OA
HETATM   36  H   UNL     1      -0.408   7.739  16.073  0.00  0.00     0.217 HD
ENDBRANCH   4  35
TORSDOF 7
ENDMDL
MODEL 6
REMARK VINA RESULT:    -7.543      1.803      6.691
REMARK INTER + INTRA:         -13.497
REMARK INTER:                 -11.409
REMARK INTRA:                  -2.087
REMARK UNBOUND:                -3.308
REMARK  7 active torsions:
REMARK  status: ('A' for Active; 'I' for Inactive)
REMARK    1  A    between atoms: C_7  and  N_8 
REMARK    2  A    between atoms: C_14  and  C_15 
REMARK    3  A    between atoms: C_16  and  O_17 
REMARK    4  A    between atoms: C_19  and  O_20 
REMARK    5  A    between atoms: C_22  and  C_23 
REMARK       I    between atoms: C_23  and  N_25 
REMARK    6  A    between atoms: N_25  and  C_27 
REMARK    7  A    between atoms: C_27  and  C_28 
ROOT
HETATM    1  C   UNL     1       2.048   5.672  17.374  0.00  0.00     0.046 A 
HETATM    2  C   UNL     1       1.276   6.825  17.107  0.00  0.00     0.082 A 
HETATM    3  C   UNL     1       1.599   8.057  17.656  0.00  0.00     0.075 A 
HETATM    4  C   UNL     1       2.712   8.169  18.484  0.00  0.00     0.084 A 
HETATM    5  C   UNL     1       3.143   5.786  18.260  0.00  0.00     0.038 A 
HETATM    6  C   UNL     1       3.523   7.050  18.781  0.00  0.00     0.066 A 
ENDROOT
BRANCH   1   7
HETATM    7  C   UNL     1       1.714   4.437  16.592  0.00  0.00     0.172 A 
HETATM    8  N   UNL     1       1.605   3.145  17.050  0.00  0.00    -0.244 N 
HETATM    9  C   UNL     1       1.315   2.389  15.922  0.00  0.00     0.349 A 
HETATM   10  O   UNL     1       1.232   1.174  15.780  0.00  0.00    -0.245 OA
HETATM   11  N   UNL     1       1.235   3.291  14.873  0.00  0.00    -0.226 N 
HETATM   12  H   UNL     1       1.208   3.029  13.896  0.00  0.00     0.194 HD
HETATM   13  N   UNL     1       1.503   4.548  15.300  0.00  0.00    -0.151 NA
BRANCH   8  14
HETATM   14  C   UNL     1       2.013   2.494  18.239  0.00  0.00     0.051 A 
HETATM   15  C   UNL     1       1.178   2.323  19.361  0.00  0.00    -0.035 A 
HETATM   16  C   UNL     1      -0.175   2.968  19.488  0.00  0.00     0.050 C 
HETATM   17  C   UNL     1       1.693   1.687  20.509  0.00  0.00     0.009 A 
HETATM   18  C   UNL     1       3.037   1.328  20.598  0.00  0.00     0.001 A 
HETATM   19  C   UNL     1       3.889   1.590  19.536  0.00  0.00     0.002 A 
HETATM   20  C   UNL     1       3.377   2.150  18.364  0.00  0.00     0.031 A 
ENDBRANCH   8  14
ENDBRANCH   1   7
BRANCH   2  21
HETATM   21  O   UNL     1       0.192   6.850  16.263  0.00  0.00    -0.360 OA
HETATM   22  H   UNL     1       0.405   7.434  15.502  0.00  0.00     0.217 HD
ENDBRANCH   2  21
BRANCH   6  23
HETATM   23  C   UNL     1       4.925   7.312  19.252  0.00  0.00     0.256 C 
HETATM   24  O   UNL     1       5.738   7.567  18.356  0.00  0.00    -0.267 OA
HETATM   25  N   UNL     1       5.361   7.183  20.577  0.00  0.00    -0.348 N 
HETATM   26  C   UNL     1       6.806   7.238  20.796  0.00  0.00     0.153 C 
BRANCH  25  27
HETATM   27  C   UNL     1       4.544   6.986  21.774  0.00  0.00     0.164 C 
BRANCH  27  28
HETATM   28  C   UNL     1       4.025   8.229  22.472  0.00  0.00    -0.040 A 
HETATM   29  C   UNL     1       4.471   9.491  22.032  0.00  0.00     0.009 A 
HETATM   30  C   UNL     1       4.208  10.647  22.768  0.00  0.00     0.001 A 
HETATM   31  C   UNL     1       3.503  10.563  23.965  0.00  0.00     0.007 A 
HETATM   32  C   UNL     1       3.019   9.327  24.412  0.00  0.00    -0.061 A 
HETATM   33  C   UNL     1       3.274   8.167  23.658  0.00  0.00     0.015 A 
HETATM   34  C   UNL     1       2.349   9.239  25.753  0.00  0.00     0.048 C 
ENDBRANCH  27  28
ENDBRANCH  25  27
ENDBRANCH   6  23
BRANCH   4  35
HETATM   35  O   UNL     1       3.017   9.418  18.956  0.00  0.00    -0.360 OA
HETATM   36  H   UNL     1       3.987   9.508  19.031  0.00  0.00     0.217 HD
ENDBRANCH   4  35
TORSDOF 7
ENDMDL
MODEL 7
REMARK VINA RESULT:    -7.305      4.478      8.527
REMARK INTER + INTRA:         -13.175
REMARK INTER:                 -11.242
REMARK INTRA:                  -1.932
REMARK UNBOUND:                -3.308
REMARK  7 active torsions:
REMARK  status: ('A' for Active; 'I' for Inactive)
REMARK    1  A    between atoms: C_7  and  N_8 
REMARK    2  A    between atoms: C_14  and  C_15 
REMARK    3  A    between atoms: C_16  and  O_17 
REMARK    4  A    between atoms: C_19  and  O_20 
REMARK    5  A    between atoms: C_22  and  C_23 
REMARK       I    between atoms: C_23  and  N_25 
REMARK    6  A    between atoms: N_25  and  C_27 
REMARK    7  A    between atoms: C_27  and  C_28 
ROOT
HETATM    1  C   UNL     1       3.671   7.012  22.628  0.00  0.00     0.046 A 
HETATM    2  C   UNL     1       4.447   8.141  22.281  0.00  0.00     0.082 A 
HETATM    3  C   UNL     1       4.291   9.357  22.932  0.00  0.00     0.075 A 
HETATM    4  C   UNL     1       3.357   9.471  23.957  0.00  0.00     0.084 A 
HETATM    5  C   UNL     1       2.686   7.156  23.632  0.00  0.00     0.038 A 
HETATM    6  C   UNL     1       2.557   8.374  24.349  0.00  0.00     0.066 A 
ENDROOT
BRANCH   1   7
HETATM    7  C   UNL     1       4.043   5.711  21.984  0.00  0.00     0.172 A 
HETATM    8  N   UNL     1       3.611   5.206  20.779  0.00  0.00    -0.244 N 
HETATM    9  C   UNL     1       4.225   3.965  20.673  0.00  0.00     0.349 A 
HETATM   10  O   UNL     1       4.080   3.076  19.840  0.00  0.00    -0.245 OA
HETATM   11  N   UNL     1       5.011   3.833  21.806  0.00  0.00    -0.226 N 
HETATM   12  H   UNL     1       5.445   2.968  22.102  0.00  0.00     0.194 HD
HETATM   13  N   UNL     1       4.872   4.910  22.614  0.00  0.00    -0.151 NA
BRANCH   8  14
HETATM   14  C   UNL     1       2.540   5.530  19.913  0.00  0.00     0.051 A 
HETATM   15  C   UNL     1       2.631   6.489  18.884  0.00  0.00    -0.035 A 
HETATM   16  C   UNL     1       3.817   7.398  18.707  0.00  0.00     0.050 C 
HETATM   17  C   UNL     1       1.494   6.760  18.097  0.00  0.00     0.009 A 
HETATM   18  C   UNL     1       0.257   6.187  18.387  0.00  0.00     0.001 A 
HETATM   19  C   UNL     1       0.137   5.323  19.465  0.00  0.00     0.002 A 
HETATM   20  C   UNL     1       1.270   4.987  20.207  0.00  0.00     0.031 A 
ENDBRANCH   8  14
ENDBRANCH   1   7
BRANCH   2  21
HETATM   21  O   UNL     1       5.437   8.135  21.329  0.00  0.00    -0.360 OA
HETATM   22  H   UNL     1       5.283   8.887  20.715  0.00  0.00     0.217 HD
ENDBRANCH   2  21
BRANCH   6  23
HETATM   23  C   UNL     1       1.949   8.412  25.722  0.00  0.00     0.256 C 
HETATM   24  O   UNL     1       2.748   8.257  26.653  0.00  0.00    -0.267 OA
HETATM   25  N   UNL     1       0.576   8.501  25.986  0.00  0.00    -0.348 N 
HETATM   26  C   UNL     1       0.162   8.274  27.371  0.00  0.00     0.153 C 
BRANCH  25  27
HETATM   27  C   UNL     1      -0.502   8.782  25.039  0.00  0.00     0.164 C 
BRANCH  27  28
HETATM   28  C   UNL     1      -0.842  10.239  24.786  0.00  0.00    -0.040 A 
HETATM   29  C   UNL     1      -2.064  10.550  24.158  0.00  0.00     0.009 A 
HETATM   30  C   UNL     1      -2.332  11.841  23.699  0.00  0.00     0.001 A 
HETATM   31  C   UNL     1      -1.379  12.844  23.851  0.00  0.00     0.007 A 
HETATM   32  C   UNL     1      -0.168  12.572  24.500  0.00  0.00    -0.061 A 
HETATM   33  C   UNL     1       0.090  11.272  24.974  0.00  0.00     0.015 A 
HETATM   34  C   UNL     1       0.888  13.637  24.566  0.00  0.00     0.048 C 
ENDBRANCH  27  28
ENDBRANCH  25  27
ENDBRANCH   6  23
BRANCH   4  35
HETATM   35  O   UNL     1       3.281  10.677  24.602  0.00  0.00    -0.360 OA
HETATM   36  H   UNL     1       2.415  11.088  24.419  0.00  0.00     0.217 HD
ENDBRANCH   4  35
TORSDOF 7
ENDMDL
MODEL 8
REMARK VINA RESULT:    -7.298      3.797      7.880
REMARK INTER + INTRA:         -13.166
REMARK INTER:                 -10.822
REMARK INTRA:                  -2.344
REMARK UNBOUND:                -3.308
REMARK  7 active torsions:
REMARK  status: ('A' for Active; 'I' for Inactive)
REMARK    1  A    between atoms: C_7  and  N_8 
REMARK    2  A    between atoms: C_14  and  C_15 
REMARK    3  A    between atoms: C_16  and  O_17 
REMARK    4  A    between atoms: C_19  and  O_20 
REMARK    5  A    between atoms: C_22  and  C_23 
REMARK       I    between atoms: C_23  and  N_25 
REMARK    6  A    between atoms: N_25  and  C_27 
REMARK    7  A    between atoms: C_27  and  C_28 
ROOT
HETATM    1  C   UNL     1       4.107   7.103  21.510  0.00  0.00     0.046 A 
HETATM    2  C   UNL     1       5.491   6.814  21.529  0.00  0.00     0.082 A 
HETATM    3  C   UNL     1       6.103   6.276  22.652  0.00  0.00     0.075 A 
HETATM    4  C   UNL     1       5.342   6.005  23.786  0.00  0.00     0.084 A 
HETATM    5  C   UNL     1       3.356   6.877  22.686  0.00  0.00     0.038 A 
HETATM    6  C   UNL     1       3.955   6.269  23.820  0.00  0.00     0.066 A 
ENDROOT
BRANCH   1   7
HETATM    7  C   UNL     1       3.521   7.516  20.194  0.00  0.00     0.172 A 
HETATM    8  N   UNL     1       2.962   6.716  19.225  0.00  0.00    -0.244 N 
HETATM    9  C   UNL     1       2.611   7.587  18.202  0.00  0.00     0.349 A 
HETATM   10  O   UNL     1       2.180   7.357  17.076  0.00  0.00    -0.245 OA
HETATM   11  N   UNL     1       2.952   8.853  18.649  0.00  0.00    -0.226 N 
HETATM   12  H   UNL     1       2.979   9.677  18.063  0.00  0.00     0.194 HD
HETATM   13  N   UNL     1       3.530   8.789  19.872  0.00  0.00    -0.151 NA
BRANCH   8  14
HETATM   14  C   UNL     1       2.987   5.322  18.976  0.00  0.00     0.051 A 
HETATM   15  C   UNL     1       1.879   4.475  19.171  0.00  0.00    -0.035 A 
HETATM   16  C   UNL     1       0.603   4.924  19.831  0.00  0.00     0.050 C 
HETATM   17  C   UNL     1       2.019   3.094  18.923  0.00  0.00     0.009 A 
HETATM   18  C   UNL     1       3.256   2.536  18.602  0.00  0.00     0.001 A 
HETATM   19  C   UNL     1       4.373   3.352  18.512  0.00  0.00     0.002 A 
HETATM   20  C   UNL     1       4.235   4.731  18.681  0.00  0.00     0.031 A 
ENDBRANCH   8  14
ENDBRANCH   1   7
BRANCH   2  21
HETATM   21  O   UNL     1       6.331   6.984  20.456  0.00  0.00    -0.360 OA
HETATM   22  H   UNL     1       6.209   6.226  19.843  0.00  0.00     0.217 HD
ENDBRANCH   2  21
BRANCH   6  23
HETATM   23  C   UNL     1       3.131   5.534  24.839  0.00  0.00     0.256 C 
HETATM   24  O   UNL     1       3.077   4.308  24.681  0.00  0.00    -0.267 OA
HETATM   25  N   UNL     1       2.371   6.144  25.844  0.00  0.00    -0.348 N 
HETATM   26  C   UNL     1       1.445   5.280  26.578  0.00  0.00     0.153 C 
BRANCH  25  27
HETATM   27  C   UNL     1       2.380   7.550  26.246  0.00  0.00     0.164 C 
BRANCH  27  28
HETATM   28  C   UNL     1       1.066   8.305  26.159  0.00  0.00    -0.040 A 
HETATM   29  C   UNL     1       0.610   8.728  24.895  0.00  0.00     0.009 A 
HETATM   30  C   UNL     1      -0.464   9.612  24.774  0.00  0.00     0.001 A 
HETATM   31  C   UNL     1      -1.096  10.097  25.915  0.00  0.00     0.007 A 
HETATM   32  C   UNL     1      -0.686   9.669  27.183  0.00  0.00    -0.061 A 
HETATM   33  C   UNL     1       0.388   8.767  27.299  0.00  0.00     0.015 A 
HETATM   34  C   UNL     1      -1.311  10.278  28.405  0.00  0.00     0.048 C 
ENDBRANCH  27  28
ENDBRANCH  25  27
ENDBRANCH   6  23
BRANCH   4  35
HETATM   35  O   UNL     1       5.986   5.424  24.846  0.00  0.00    -0.360 OA
HETATM   36  H   UNL     1       5.473   5.581  25.662  0.00  0.00     0.217 HD
ENDBRANCH   4  35
TORSDOF 7
ENDMDL
MODEL 9
REMARK VINA RESULT:    -7.216      2.536      4.572
REMARK INTER + INTRA:         -13.056
REMARK INTER:                  -9.747
REMARK INTRA:                  -3.308
REMARK UNBOUND:                -3.308
REMARK  7 active torsions:
REMARK  status: ('A' for Active; 'I' for Inactive)
REMARK    1  A    between atoms: C_7  and  N_8 
REMARK    2  A    between atoms: C_14  and  C_15 
REMARK    3  A    between atoms: C_16  and  O_17 
REMARK    4  A    between atoms: C_19  and  O_20 
REMARK    5  A    between atoms: C_22  and  C_23 
REMARK       I    between atoms: C_23  and  N_25 
REMARK    6  A    between atoms: N_25  and  C_27 
REMARK    7  A    between atoms: C_27  and  C_28 
ROOT
HETATM    1  C   UNL     1       4.018   6.303  20.416  0.00  0.00     0.046 A 
HETATM    2  C   UNL     1       4.656   6.387  19.157  0.00  0.00     0.082 A 
HETATM    3  C   UNL     1       4.573   5.357  18.232  0.00  0.00     0.075 A 
HETATM    4  C   UNL     1       3.840   4.215  18.540  0.00  0.00     0.084 A 
HETATM    5  C   UNL     1       3.324   5.115  20.740  0.00  0.00     0.038 A 
HETATM    6  C   UNL     1       3.178   4.079  19.781  0.00  0.00     0.066 A 
ENDROOT
BRANCH   1   7
HETATM    7  C   UNL     1       4.027   7.539  21.263  0.00  0.00     0.172 A 
HETATM    8  N   UNL     1       4.070   7.629  22.635  0.00  0.00    -0.244 N 
HETATM    9  C   UNL     1       4.022   8.990  22.906  0.00  0.00     0.349 A 
HETATM   10  O   UNL     1       3.923   9.584  23.974  0.00  0.00    -0.245 OA
HETATM   11  N   UNL     1       3.991   9.620  21.672  0.00  0.00    -0.226 N 
HETATM   12  H   UNL     1       3.780  10.600  21.537  0.00  0.00     0.194 HD
HETATM   13  N   UNL     1       3.975   8.710  20.670  0.00  0.00    -0.151 NA
BRANCH   8  14
HETATM   14  C   UNL     1       3.843   6.701  23.681  0.00  0.00     0.051 A 
HETATM   15  C   UNL     1       4.808   5.776  24.126  0.00  0.00    -0.035 A 
HETATM   16  C   UNL     1       6.120   5.551  23.424  0.00  0.00     0.050 C 
HETATM   17  C   UNL     1       4.470   4.874  25.155  0.00  0.00     0.009 A 
HETATM   18  C   UNL     1       3.172   4.802  25.659  0.00  0.00     0.001 A 
HETATM   19  C   UNL     1       2.191   5.639  25.150  0.00  0.00     0.002 A 
HETATM   20  C   UNL     1       2.529   6.589  24.184  0.00  0.00     0.031 A 
ENDBRANCH   8  14
ENDBRANCH   1   7
BRANCH   2  21
HETATM   21  O   UNL     1       5.357   7.484  18.719  0.00  0.00    -0.360 OA
HETATM   22  H   UNL     1       6.114   7.632  19.327  0.00  0.00     0.217 HD
ENDBRANCH   2  21
BRANCH   6  23
HETATM   23  C   UNL     1       2.049   3.092  19.863  0.00  0.00     0.256 C 
HETATM   24  O   UNL     1       2.391   1.921  20.063  0.00  0.00    -0.267 OA
HETATM   25  N   UNL     1       0.702   3.397  19.628  0.00  0.00    -0.348 N 
HETATM   26  C   UNL     1      -0.213   2.262  19.509  0.00  0.00     0.153 C 
BRANCH  25  27
HETATM   27  C   UNL     1       0.097   4.719  19.472  0.00  0.00     0.164 C 
BRANCH  27  28
HETATM   28  C   UNL     1       0.546   5.554  18.287  0.00  0.00    -0.040 A 
HETATM   29  C   UNL     1       0.767   4.914  17.052  0.00  0.00     0.009 A 
HETATM   30  C   UNL     1       1.390   5.579  15.995  0.00  0.00     0.001 A 
HETATM   31  C   UNL     1       1.812   6.895  16.156  0.00  0.00     0.007 A 
HETATM   32  C   UNL     1       1.577   7.568  17.361  0.00  0.00    -0.061 A 
HETATM   33  C   UNL     1       0.935   6.897  18.419  0.00  0.00     0.015 A 
HETATM   34  C   UNL     1       2.128   8.952  17.553  0.00  0.00     0.048 C 
ENDBRANCH  27  28
ENDBRANCH  25  27
ENDBRANCH   6  23
BRANCH   4  35
HETATM   35  O   UNL     1       3.746   3.252  17.571  0.00  0.00    -0.360 OA
HETATM   36  H   UNL     1       3.129   2.555  17.866  0.00  0.00     0.217 HD
ENDBRANCH   4  35
TORSDOF 7
ENDMDL
