REMARK  7 active torsions:
REMARK  status: ('A' for Active; 'I' for Inactive)
REMARK    1  A    between atoms: C_7  and  N_8 
REMARK    2  A    between atoms: C_14  and  C_15 
REMARK    3  A    between atoms: C_16  and  O_17 
REMARK    4  A    between atoms: C_19  and  O_20 
REMARK    5  A    between atoms: C_22  and  C_23 
REMARK       I    between atoms: C_23  and  N_25 
REMARK    6  A    between atoms: N_25  and  C_27 
REMARK    7  A    between atoms: C_27  and  C_28 
ROOT
HETATM    1  C   UNL     1       0.042  -1.487   0.002  0.00  0.00     0.046 A 
HETATM    2  C   UNL     1      -1.152  -1.740  -0.711  0.00  0.00     0.082 A 
HETATM    3  C   UNL     1      -2.048  -0.723  -1.008  0.00  0.00     0.075 A 
HETATM    4  C   UNL     1      -1.767   0.579  -0.605  0.00  0.00     0.084 A 
HETATM    5  C   UNL     1       0.289  -0.171   0.455  0.00  0.00     0.038 A 
HETATM    6  C   UNL     1      -0.586   0.890   0.106  0.00  0.00     0.066 A 
ENDROOT
BRANCH   1   7
HETATM    7  C   UNL     1       1.016  -2.621   0.114  0.00  0.00     0.172 A 
HETATM    8  N   UNL     1       2.381  -2.556   0.272  0.00  0.00    -0.244 N 
HETATM    9  C   UNL     1       2.802  -3.879   0.283  0.00  0.00     0.349 A 
HETATM   10  O   UNL     1       3.934  -4.352   0.289  0.00  0.00    -0.245 OA
HETATM   11  N   UNL     1       1.652  -4.643   0.167  0.00  0.00    -0.226 N 
HETATM   12  H   UNL     1       1.644  -5.636  -0.028  0.00  0.00     0.194 HD
HETATM   13  N   UNL     1       0.561  -3.851   0.044  0.00  0.00    -0.151 NA
BRANCH   8  14
HETATM   14  C   UNL     1       3.334  -1.522   0.108  0.00  0.00     0.051 A 
HETATM   15  C   UNL     1       3.307  -0.597  -0.954  0.00  0.00    -0.035 A 
HETATM   16  C   UNL     1       2.370  -0.714  -2.126  0.00  0.00     0.050 C 
HETATM   17  C   UNL     1       4.323   0.376  -1.042  0.00  0.00     0.009 A 
HETATM   18  C   UNL     1       5.411   0.370  -0.171  0.00  0.00     0.001 A 
HETATM   19  C   UNL     1       5.497  -0.604   0.812  0.00  0.00     0.002 A 
HETATM   20  C   UNL     1       4.461  -1.528   0.959  0.00  0.00     0.031 A 
ENDBRANCH   8  14
ENDBRANCH   1   7
BRANCH   2  21
HETATM   21  O   UNL     1      -1.509  -2.969  -1.209  0.00  0.00    -0.360 OA
HETATM   22  H   UNL     1      -0.891  -3.642  -0.848  0.00  0.00     0.217 HD
ENDBRANCH   2  21
BRANCH   6  23
HETATM   23  C   UNL     1      -0.115   2.316   0.083  0.00  0.00     0.256 C 
HETATM   24  O   UNL     1      -0.304   2.912  -0.984  0.00  0.00    -0.267 OA
HETATM   25  N   UNL     1       0.590   2.942   1.119  0.00  0.00    -0.348 N 
HETATM   26  C   UNL     1       1.177   4.247   0.813  0.00  0.00     0.153 C 
BRANCH  25  27
HETATM   27  C   UNL     1       0.824   2.443   2.473  0.00  0.00     0.164 C 
BRANCH  27  28
HETATM   28  C   UNL     1       0.131   3.170   3.611  0.00  0.00    -0.040 A 
HETATM   29  C   UNL     1       0.816   3.326   4.832  0.00  0.00     0.009 A 
HETATM   30  C   UNL     1       0.158   3.781   5.976  0.00  0.00     0.001 A 
HETATM   31  C   UNL     1      -1.200   4.080   5.923  0.00  0.00     0.007 A 
HETATM   32  C   UNL     1      -1.900   3.965   4.716  0.00  0.00    -0.061 A 
HETATM   33  C   UNL     1      -1.228   3.520   3.562  0.00  0.00     0.015 A 
HETATM   34  C   UNL     1      -3.384   4.194   4.699  0.00  0.00     0.048 C 
ENDBRANCH  27  28
ENDBRANCH  25  27
ENDBRANCH   6  23
BRANCH   4  35
HETATM   35  O   UNL     1      -2.658   1.553  -0.971  0.00  0.00    -0.360 OA
HETATM   36  H   UNL     1      -3.138   1.268  -1.772  0.00  0.00     0.217 HD
ENDBRANCH   4  35
TORSDOF 7
