MODEL 1
REMARK VINA RESULT:    -6.245      0.000      0.000
REMARK INTER + INTRA:          -9.006
REMARK INTER:                  -8.063
REMARK INTRA:                  -0.943
REMARK UNBOUND:                -0.935
REMARK  5 active torsions:
REMARK  status: ('A' for Active; 'I' for Inactive)
REMARK    1  A    between atoms: N8_1  and  C24_2 
REMARK    2  A    between atoms: N8_1  and  C7_8 
REMARK    3  A    between atoms: C2_13  and  N1_14 
REMARK    4  A    between atoms: N1_14  and  C17_15 
REMARK    5  A    between atoms: C14_16  and  C13_19 
ROOT
ATOM      1  C17 FTA A   1       2.431  19.364  19.605  1.00  0.00     0.142 C 
ATOM      2  C14 FTA A   1       1.906  20.228  20.497  1.00  0.00     0.158 C 
ATOM      3  C18 FTA A   1       1.408  21.514  20.057  1.00  0.00     0.069 C 
ATOM      4  N21 FTA A   1       1.100  22.535  19.570  1.00  0.00    -0.197 NA
ENDROOT
BRANCH   2   5
ATOM      5  C13 FTA A   1       1.828  19.843  21.925  1.00  0.00     0.197 A 
ATOM      6  N15 FTA A   1       2.867  19.906  22.851  1.00  0.00    -0.093 NA
ATOM      7  N19 FTA A   1       2.383  19.411  24.055  1.00  0.00    -0.231 N 
ATOM      8  N20 FTA A   1       1.057  19.038  23.894  1.00  0.00    -0.017 NA
ATOM      9  H15 FTA A   1       2.923  19.333  24.929  1.00  0.00     0.200 HD
ATOM     10  N16 FTA A   1       0.707  19.316  22.576  1.00  0.00    -0.090 NA
ENDBRANCH   2   5
BRANCH   1  11
ATOM     11  N1  FTA A   1       3.658  18.856  19.836  1.00  0.00    -0.389 N 
ATOM     12  H11 FTA A   1       4.177  19.217  20.649  1.00  0.00     0.159 HD
BRANCH  11  13
ATOM     13  C2  FTA A   1       4.290  17.861  19.042  1.00  0.00     0.028 A 
ATOM     14  C4  FTA A   1       4.852  16.715  19.599  1.00  0.00     0.031 A 
ATOM     15  C6  FTA A   1       5.657  15.894  18.798  1.00  0.00     0.031 A 
ATOM     16  C7  FTA A   1       5.914  16.187  17.461  1.00  0.00     0.032 A 
ATOM     17  C5  FTA A   1       5.327  17.315  16.916  1.00  0.00     0.031 A 
ATOM     18  C3  FTA A   1       4.538  18.150  17.697  1.00  0.00     0.031 A 
BRANCH  16  19
ATOM     19  N8  FTA A   1       6.884  15.493  16.694  1.00  0.00    -0.356 N 
ATOM     20  H1  FTA A   1       6.669  14.521  16.428  1.00  0.00     0.166 HD
BRANCH  19  21
ATOM     21  C24 FTA A   1       8.134  16.030  16.261  1.00  0.00     0.032 A 
ATOM     22  C26 FTA A   1       8.427  16.188  14.927  1.00  0.00     0.029 A 
ATOM     23  C28 FTA A   1       9.712  16.549  14.569  1.00  0.00     0.002 A 
ATOM     24  C30 FTA A   1      10.705  16.786  15.505  1.00  0.00     0.000 A 
ATOM     25  C29 FTA A   1      10.416  16.669  16.838  1.00  0.00     0.002 A 
ATOM     26  C27 FTA A   1       9.116  16.300  17.204  1.00  0.00     0.029 A 
ENDBRANCH  19  21
ENDBRANCH  16  19
ENDBRANCH  11  13
ENDBRANCH   1  11
TORSDOF 5
ENDMDL
MODEL 2
REMARK VINA RESULT:    -6.228      0.897      1.152
REMARK INTER + INTRA:          -8.983
REMARK INTER:                  -8.202
REMARK INTRA:                  -0.782
REMARK UNBOUND:                -0.935
REMARK  5 active torsions:
REMARK  status: ('A' for Active; 'I' for Inactive)
REMARK    1  A    between atoms: N8_1  and  C24_2 
REMARK    2  A    between atoms: N8_1  and  C7_8 
REMARK    3  A    between atoms: C2_13  and  N1_14 
REMARK    4  A    between atoms: N1_14  and  C17_15 
REMARK    5  A    between atoms: C14_16  and  C13_19 
ROOT
ATOM      1  C17 FTA A   1       2.927  18.674  19.987  1.00  0.00     0.142 C 
ATOM      2  C14 FTA A   1       2.281  19.658  20.643  1.00  0.00     0.158 C 
ATOM      3  C18 FTA A   1       1.818  20.828  19.928  1.00  0.00     0.069 C 
ATOM      4  N21 FTA A   1       1.554  21.736  19.235  1.00  0.00    -0.197 NA
ENDROOT
BRANCH   2   5
ATOM      5  C13 FTA A   1       2.036  19.525  22.098  1.00  0.00     0.197 A 
ATOM      6  N15 FTA A   1       2.975  19.711  23.110  1.00  0.00    -0.093 NA
ATOM      7  N19 FTA A   1       2.345  19.444  24.319  1.00  0.00    -0.231 N 
ATOM      8  N20 FTA A   1       1.026  19.090  24.076  1.00  0.00    -0.017 NA
ATOM      9  H15 FTA A   1       2.787  19.499  25.248  1.00  0.00     0.200 HD
ATOM     10  N16 FTA A   1       0.829  19.150  22.700  1.00  0.00    -0.090 NA
ENDBRANCH   2   5
BRANCH   1  11
ATOM     11  N1  FTA A   1       4.125  18.262  20.445  1.00  0.00    -0.389 N 
ATOM     12  H11 FTA A   1       4.330  18.413  21.444  1.00  0.00     0.159 HD
BRANCH  11  13
ATOM     13  C2  FTA A   1       5.128  17.636  19.657  1.00  0.00     0.028 A 
ATOM     14  C4  FTA A   1       6.215  18.339  19.144  1.00  0.00     0.031 A 
ATOM     15  C6  FTA A   1       7.037  17.722  18.191  1.00  0.00     0.031 A 
ATOM     16  C7  FTA A   1       6.800  16.427  17.738  1.00  0.00     0.032 A 
ATOM     17  C5  FTA A   1       5.731  15.732  18.275  1.00  0.00     0.031 A 
ATOM     18  C3  FTA A   1       4.896  16.331  19.211  1.00  0.00     0.031 A 
BRANCH  16  19
ATOM     19  N8  FTA A   1       7.484  15.861  16.632  1.00  0.00    -0.356 N 
ATOM     20  H1  FTA A   1       7.031  15.072  16.149  1.00  0.00     0.166 HD
BRANCH  19  21
ATOM     21  C24 FTA A   1       8.749  16.296  16.132  1.00  0.00     0.032 A 
ATOM     22  C26 FTA A   1       8.923  16.642  14.813  1.00  0.00     0.029 A 
ATOM     23  C28 FTA A   1      10.204  16.887  14.356  1.00  0.00     0.002 A 
ATOM     24  C30 FTA A   1      11.312  16.826  15.183  1.00  0.00     0.000 A 
ATOM     25  C29 FTA A   1      11.148  16.520  16.508  1.00  0.00     0.002 A 
ATOM     26  C27 FTA A   1       9.852  16.268  16.973  1.00  0.00     0.029 A 
ENDBRANCH  19  21
ENDBRANCH  16  19
ENDBRANCH  11  13
ENDBRANCH   1  11
TORSDOF 5
ENDMDL
MODEL 3
REMARK VINA RESULT:    -6.174      8.428     12.112
REMARK INTER + INTRA:          -8.913
REMARK INTER:                  -7.926
REMARK INTRA:                  -0.987
REMARK UNBOUND:                -0.935
REMARK  5 active torsions:
REMARK  status: ('A' for Active; 'I' for Inactive)
REMARK    1  A    between atoms: N8_1  and  C24_2 
REMARK    2  A    between atoms: N8_1  and  C7_8 
REMARK    3  A    between atoms: C2_13  and  N1_14 
REMARK    4  A    between atoms: N1_14  and  C17_15 
REMARK    5  A    between atoms: C14_16  and  C13_19 
ROOT
ATOM      1  C17 FTA A   1       3.062  14.042  11.480  1.00  0.00     0.142 C 
ATOM      2  C14 FTA A   1       4.136  13.234  11.367  1.00  0.00     0.158 C 
ATOM      3  C18 FTA A   1       4.093  12.087  10.485  1.00  0.00     0.069 C 
ATOM      4  N21 FTA A   1       3.897  11.170   9.782  1.00  0.00    -0.197 NA
ENDROOT
BRANCH   2   5
ATOM      5  C13 FTA A   1       5.361  13.539  12.140  1.00  0.00     0.197 A 
ATOM      6  N15 FTA A   1       6.309  12.616  12.576  1.00  0.00    -0.093 NA
ATOM      7  N19 FTA A   1       7.268  13.313  13.300  1.00  0.00    -0.231 N 
ATOM      8  N20 FTA A   1       6.931  14.658  13.326  1.00  0.00    -0.017 NA
ATOM      9  H15 FTA A   1       8.098  12.897  13.748  1.00  0.00     0.200 HD
ATOM     10  N16 FTA A   1       5.754  14.802  12.598  1.00  0.00    -0.090 NA
ENDBRANCH   2   5
BRANCH   1  11
ATOM     11  N1  FTA A   1       2.572  14.306  12.706  1.00  0.00    -0.389 N 
ATOM     12  H11 FTA A   1       3.247  14.388  13.481  1.00  0.00     0.159 HD
BRANCH  11  13
ATOM     13  C2  FTA A   1       1.195  14.482  13.013  1.00  0.00     0.028 A 
ATOM     14  C4  FTA A   1       0.582  13.818  14.073  1.00  0.00     0.031 A 
ATOM     15  C6  FTA A   1      -0.815  13.854  14.180  1.00  0.00     0.031 A 
ATOM     16  C7  FTA A   1      -1.611  14.530  13.259  1.00  0.00     0.032 A 
ATOM     17  C5  FTA A   1      -0.985  15.205  12.226  1.00  0.00     0.031 A 
ATOM     18  C3  FTA A   1       0.398  15.171  12.095  1.00  0.00     0.031 A 
BRANCH  16  19
ATOM     19  N8  FTA A   1      -3.023  14.406  13.226  1.00  0.00    -0.356 N 
ATOM     20  H1  FTA A   1      -3.571  15.273  13.121  1.00  0.00     0.166 HD
BRANCH  19  21
ATOM     21  C24 FTA A   1      -3.749  13.181  13.327  1.00  0.00     0.032 A 
ATOM     22  C26 FTA A   1      -3.867  12.324  12.258  1.00  0.00     0.029 A 
ATOM     23  C28 FTA A   1      -4.722  11.244  12.367  1.00  0.00     0.002 A 
ATOM     24  C30 FTA A   1      -5.439  10.977  13.522  1.00  0.00     0.000 A 
ATOM     25  C29 FTA A   1      -5.300  11.801  14.606  1.00  0.00     0.002 A 
ATOM     26  C27 FTA A   1      -4.438  12.898  14.497  1.00  0.00     0.029 A 
ENDBRANCH  19  21
ENDBRANCH  16  19
ENDBRANCH  11  13
ENDBRANCH   1  11
TORSDOF 5
ENDMDL
MODEL 4
REMARK VINA RESULT:    -5.951      1.340      2.169
REMARK INTER + INTRA:          -8.625
REMARK INTER:                  -7.599
REMARK INTRA:                  -1.027
REMARK UNBOUND:                -0.935
REMARK  5 active torsions:
REMARK  status: ('A' for Active; 'I' for Inactive)
REMARK    1  A    between atoms: N8_1  and  C24_2 
REMARK    2  A    between atoms: N8_1  and  C7_8 
REMARK    3  A    between atoms: C2_13  and  N1_14 
REMARK    4  A    between atoms: N1_14  and  C17_15 
REMARK    5  A    between atoms: C14_16  and  C13_19 
ROOT
ATOM      1  C17 FTA A   1       2.793  20.353  20.786  1.00  0.00     0.142 C 
ATOM      2  C14 FTA A   1       3.163  20.714  22.031  1.00  0.00     0.158 C 
ATOM      3  C18 FTA A   1       4.202  21.702  22.224  1.00  0.00     0.069 C 
ATOM      4  N21 FTA A   1       5.092  22.466  22.229  1.00  0.00    -0.197 NA
ENDROOT
BRANCH   2   5
ATOM      5  C13 FTA A   1       2.485  20.102  23.197  1.00  0.00     0.197 A 
ATOM      6  N15 FTA A   1       2.981  20.041  24.498  1.00  0.00    -0.093 NA
ATOM      7  N19 FTA A   1       2.056  19.347  25.265  1.00  0.00    -0.231 N 
ATOM      8  N20 FTA A   1       0.989  18.969  24.462  1.00  0.00    -0.017 NA
ATOM      9  H15 FTA A   1       2.146  19.143  26.271  1.00  0.00     0.200 HD
ATOM     10  N16 FTA A   1       1.249  19.446  23.182  1.00  0.00    -0.090 NA
ENDBRANCH   2   5
BRANCH   1  11
ATOM     11  N1  FTA A   1       2.784  19.046  20.462  1.00  0.00    -0.389 N 
ATOM     12  H11 FTA A   1       1.998  18.476  20.806  1.00  0.00     0.159 HD
BRANCH  11  13
ATOM     13  C2  FTA A   1       3.776  18.393  19.680  1.00  0.00     0.028 A 
ATOM     14  C4  FTA A   1       3.751  18.408  18.288  1.00  0.00     0.031 A 
ATOM     15  C6  FTA A   1       4.616  17.559  17.584  1.00  0.00     0.031 A 
ATOM     16  C7  FTA A   1       5.499  16.699  18.231  1.00  0.00     0.032 A 
ATOM     17  C5  FTA A   1       5.529  16.715  19.614  1.00  0.00     0.031 A 
ATOM     18  C3  FTA A   1       4.671  17.538  20.331  1.00  0.00     0.031 A 
BRANCH  16  19
ATOM     19  N8  FTA A   1       6.228  15.690  17.552  1.00  0.00    -0.356 N 
ATOM     20  H1  FTA A   1       5.870  14.726  17.612  1.00  0.00     0.166 HD
BRANCH  19  21
ATOM     21  C24 FTA A   1       7.418  15.900  16.791  1.00  0.00     0.032 A 
ATOM     22  C26 FTA A   1       8.584  16.327  17.380  1.00  0.00     0.029 A 
ATOM     23  C28 FTA A   1       9.647  16.677  16.569  1.00  0.00     0.002 A 
ATOM     24  C30 FTA A   1       9.590  16.582  15.189  1.00  0.00     0.000 A 
ATOM     25  C29 FTA A   1       8.447  16.122  14.591  1.00  0.00     0.002 A 
ATOM     26  C27 FTA A   1       7.368  15.771  15.410  1.00  0.00     0.029 A 
ENDBRANCH  19  21
ENDBRANCH  16  19
ENDBRANCH  11  13
ENDBRANCH   1  11
TORSDOF 5
ENDMDL
MODEL 5
REMARK VINA RESULT:    -5.949      7.654     12.355
REMARK INTER + INTRA:          -8.623
REMARK INTER:                  -7.584
REMARK INTRA:                  -1.039
REMARK UNBOUND:                -0.935
REMARK  5 active torsions:
REMARK  status: ('A' for Active; 'I' for Inactive)
REMARK    1  A    between atoms: N8_1  and  C24_2 
REMARK    2  A    between atoms: N8_1  and  C7_8 
REMARK    3  A    between atoms: C2_13  and  N1_14 
REMARK    4  A    between atoms: N1_14  and  C17_15 
REMARK    5  A    between atoms: C14_16  and  C13_19 
ROOT
ATOM      1  C17 FTA A   1       6.962  12.675   9.596  1.00  0.00     0.142 C 
ATOM      2  C14 FTA A   1       7.397  11.409   9.754  1.00  0.00     0.158 C 
ATOM      3  C18 FTA A   1       6.556  10.297   9.364  1.00  0.00     0.069 C 
ATOM      4  N21 FTA A   1       5.751   9.501   9.060  1.00  0.00    -0.197 NA
ENDROOT
BRANCH   2   5
ATOM      5  C13 FTA A   1       8.745  11.167  10.316  1.00  0.00     0.197 A 
ATOM      6  N15 FTA A   1       9.697  12.139  10.616  1.00  0.00    -0.093 NA
ATOM      7  N19 FTA A   1      10.833  11.484  11.076  1.00  0.00    -0.231 N 
ATOM      8  N20 FTA A   1      10.604  10.116  11.064  1.00  0.00    -0.017 NA
ATOM      9  H15 FTA A   1      11.705  11.941  11.377  1.00  0.00     0.200 HD
ATOM     10  N16 FTA A   1       9.307   9.918  10.604  1.00  0.00    -0.090 NA
ENDBRANCH   2   5
BRANCH   1  11
ATOM     11  N1  FTA A   1       6.990  13.510  10.652  1.00  0.00    -0.389 N 
ATOM     12  H11 FTA A   1       7.906  13.880  10.943  1.00  0.00     0.159 HD
BRANCH  11  13
ATOM     13  C2  FTA A   1       5.850  13.921  11.397  1.00  0.00     0.028 A 
ATOM     14  C4  FTA A   1       4.633  13.248  11.321  1.00  0.00     0.031 A 
ATOM     15  C6  FTA A   1       3.496  13.833  11.894  1.00  0.00     0.031 A 
ATOM     16  C7  FTA A   1       3.543  15.067  12.537  1.00  0.00     0.032 A 
ATOM     17  C5  FTA A   1       4.764  15.711  12.626  1.00  0.00     0.031 A 
ATOM     18  C3  FTA A   1       5.901  15.154  12.053  1.00  0.00     0.031 A 
BRANCH  16  19
ATOM     19  N8  FTA A   1       2.378  15.771  12.936  1.00  0.00    -0.356 N 
ATOM     20  H1  FTA A   1       2.412  16.800  12.898  1.00  0.00     0.166 HD
BRANCH  19  21
ATOM     21  C24 FTA A   1       1.163  15.172  13.387  1.00  0.00     0.032 A 
ATOM     22  C26 FTA A   1       1.100  14.472  14.568  1.00  0.00     0.029 A 
ATOM     23  C28 FTA A   1      -0.055  13.772  14.862  1.00  0.00     0.002 A 
ATOM     24  C30 FTA A   1      -1.159  13.776  14.027  1.00  0.00     0.000 A 
ATOM     25  C29 FTA A   1      -1.122  14.500  12.865  1.00  0.00     0.002 A 
ATOM     26  C27 FTA A   1       0.047  15.207  12.563  1.00  0.00     0.029 A 
ENDBRANCH  19  21
ENDBRANCH  16  19
ENDBRANCH  11  13
ENDBRANCH   1  11
TORSDOF 5
ENDMDL
MODEL 6
REMARK VINA RESULT:    -5.876      1.487      2.108
REMARK INTER + INTRA:          -8.529
REMARK INTER:                  -7.518
REMARK INTRA:                  -1.011
REMARK UNBOUND:                -0.935
REMARK  5 active torsions:
REMARK  status: ('A' for Active; 'I' for Inactive)
REMARK    1  A    between atoms: N8_1  and  C24_2 
REMARK    2  A    between atoms: N8_1  and  C7_8 
REMARK    3  A    between atoms: C2_13  and  N1_14 
REMARK    4  A    between atoms: N1_14  and  C17_15 
REMARK    5  A    between atoms: C14_16  and  C13_19 
ROOT
ATOM      1  C17 FTA A   1       3.038  18.586  20.112  1.00  0.00     0.142 C 
ATOM      2  C14 FTA A   1       2.370  19.585  20.723  1.00  0.00     0.158 C 
ATOM      3  C18 FTA A   1       1.928  20.735  19.963  1.00  0.00     0.069 C 
ATOM      4  N21 FTA A   1       1.683  21.624  19.239  1.00  0.00    -0.197 NA
ENDROOT
BRANCH   2   5
ATOM      5  C13 FTA A   1       2.080  19.489  22.172  1.00  0.00     0.197 A 
ATOM      6  N15 FTA A   1       2.978  19.734  23.208  1.00  0.00    -0.093 NA
ATOM      7  N19 FTA A   1       2.316  19.484  24.403  1.00  0.00    -0.231 N 
ATOM      8  N20 FTA A   1       1.016  19.084  24.128  1.00  0.00    -0.017 NA
ATOM      9  H15 FTA A   1       2.724  19.581  25.344  1.00  0.00     0.200 HD
ATOM     10  N16 FTA A   1       0.865  19.096  22.745  1.00  0.00    -0.090 NA
ENDBRANCH   2   5
BRANCH   1  11
ATOM     11  N1  FTA A   1       4.222  18.190  20.618  1.00  0.00    -0.389 N 
ATOM     12  H11 FTA A   1       4.390  18.356  21.621  1.00  0.00     0.159 HD
BRANCH  11  13
ATOM     13  C2  FTA A   1       5.256  17.559  19.874  1.00  0.00     0.028 A 
ATOM     14  C4  FTA A   1       6.536  18.099  19.780  1.00  0.00     0.031 A 
ATOM     15  C6  FTA A   1       7.436  17.558  18.852  1.00  0.00     0.031 A 
ATOM     16  C7  FTA A   1       7.090  16.498  18.018  1.00  0.00     0.032 A 
ATOM     17  C5  FTA A   1       5.823  15.956  18.141  1.00  0.00     0.031 A 
ATOM     18  C3  FTA A   1       4.912  16.487  19.046  1.00  0.00     0.031 A 
BRANCH  16  19
ATOM     19  N8  FTA A   1       7.903  16.074  16.936  1.00  0.00    -0.356 N 
ATOM     20  H1  FTA A   1       8.789  15.602  17.167  1.00  0.00     0.166 HD
BRANCH  19  21
ATOM     21  C24 FTA A   1       7.594  16.246  15.552  1.00  0.00     0.032 A 
ATOM     22  C26 FTA A   1       7.313  17.485  15.026  1.00  0.00     0.029 A 
ATOM     23  C28 FTA A   1       6.854  17.562  13.725  1.00  0.00     0.002 A 
ATOM     24  C30 FTA A   1       6.697  16.444  12.924  1.00  0.00     0.000 A 
ATOM     25  C29 FTA A   1       7.010  15.208  13.425  1.00  0.00     0.002 A 
ATOM     26  C27 FTA A   1       7.471  15.126  14.743  1.00  0.00     0.029 A 
ENDBRANCH  19  21
ENDBRANCH  16  19
ENDBRANCH  11  13
ENDBRANCH   1  11
TORSDOF 5
ENDMDL
MODEL 7
REMARK VINA RESULT:    -5.863      1.371      1.903
REMARK INTER + INTRA:          -8.512
REMARK INTER:                  -7.397
REMARK INTRA:                  -1.114
REMARK UNBOUND:                -0.935
REMARK  5 active torsions:
REMARK  status: ('A' for Active; 'I' for Inactive)
REMARK    1  A    between atoms: N8_1  and  C24_2 
REMARK    2  A    between atoms: N8_1  and  C7_8 
REMARK    3  A    between atoms: C2_13  and  N1_14 
REMARK    4  A    between atoms: N1_14  and  C17_15 
REMARK    5  A    between atoms: C14_16  and  C13_19 
ROOT
ATOM      1  C17 FTA A   1       4.003  20.250  20.236  1.00  0.00     0.142 C 
ATOM      2  C14 FTA A   1       4.165  20.080  21.563  1.00  0.00     0.158 C 
ATOM      3  C18 FTA A   1       5.477  20.213  22.159  1.00  0.00     0.069 C 
ATOM      4  N21 FTA A   1       6.598  20.295  22.492  1.00  0.00    -0.197 NA
ENDROOT
BRANCH   2   5
ATOM      5  C13 FTA A   1       2.987  19.770  22.406  1.00  0.00     0.197 A 
ATOM      6  N15 FTA A   1       2.924  19.860  23.795  1.00  0.00    -0.093 NA
ATOM      7  N19 FTA A   1       1.660  19.437  24.183  1.00  0.00    -0.231 N 
ATOM      8  N20 FTA A   1       0.932  19.081  23.057  1.00  0.00    -0.017 NA
ATOM      9  H15 FTA A   1       1.316  19.393  25.154  1.00  0.00     0.200 HD
ATOM     10  N16 FTA A   1       1.750  19.297  21.953  1.00  0.00    -0.090 NA
ENDBRANCH   2   5
BRANCH   1  11
ATOM     11  N1  FTA A   1       3.384  19.287  19.526  1.00  0.00    -0.389 N 
ATOM     12  H11 FTA A   1       2.360  19.347  19.436  1.00  0.00     0.159 HD
BRANCH  11  13
ATOM     13  C2  FTA A   1       4.037  18.195  18.891  1.00  0.00     0.028 A 
ATOM     14  C4  FTA A   1       4.620  17.158  19.615  1.00  0.00     0.031 A 
ATOM     15  C6  FTA A   1       5.441  16.240  18.946  1.00  0.00     0.031 A 
ATOM     16  C7  FTA A   1       5.696  16.333  17.581  1.00  0.00     0.032 A 
ATOM     17  C5  FTA A   1       5.090  17.355  16.871  1.00  0.00     0.031 A 
ATOM     18  C3  FTA A   1       4.283  18.283  17.518  1.00  0.00     0.031 A 
BRANCH  16  19
ATOM     19  N8  FTA A   1       6.682  15.550  16.927  1.00  0.00    -0.356 N 
ATOM     20  H1  FTA A   1       6.479  14.548  16.798  1.00  0.00     0.166 HD
BRANCH  19  21
ATOM     21  C24 FTA A   1       7.930  16.036  16.432  1.00  0.00     0.032 A 
ATOM     22  C26 FTA A   1       8.205  16.075  15.086  1.00  0.00     0.029 A 
ATOM     23  C28 FTA A   1       9.488  16.391  14.682  1.00  0.00     0.002 A 
ATOM     24  C30 FTA A   1      10.496  16.699  15.580  1.00  0.00     0.000 A 
ATOM     25  C29 FTA A   1      10.224  16.701  16.922  1.00  0.00     0.002 A 
ATOM     26  C27 FTA A   1       8.926  16.377  17.335  1.00  0.00     0.029 A 
ENDBRANCH  19  21
ENDBRANCH  16  19
ENDBRANCH  11  13
ENDBRANCH   1  11
TORSDOF 5
ENDMDL
MODEL 8
REMARK VINA RESULT:    -5.856      7.901     12.315
REMARK INTER + INTRA:          -8.503
REMARK INTER:                  -7.454
REMARK INTRA:                  -1.049
REMARK UNBOUND:                -0.935
REMARK  5 active torsions:
REMARK  status: ('A' for Active; 'I' for Inactive)
REMARK    1  A    between atoms: N8_1  and  C24_2 
REMARK    2  A    between atoms: N8_1  and  C7_8 
REMARK    3  A    between atoms: C2_13  and  N1_14 
REMARK    4  A    between atoms: N1_14  and  C17_15 
REMARK    5  A    between atoms: C14_16  and  C13_19 
ROOT
ATOM      1  C17 FTA A   1       7.815  12.643  11.818  1.00  0.00     0.142 C 
ATOM      2  C14 FTA A   1       8.220  11.769  10.876  1.00  0.00     0.158 C 
ATOM      3  C18 FTA A   1       9.608  11.367  10.805  1.00  0.00     0.069 C 
ATOM      4  N21 FTA A   1      10.765  11.178  10.831  1.00  0.00    -0.197 NA
ENDROOT
BRANCH   2   5
ATOM      5  C13 FTA A   1       7.230  11.212   9.925  1.00  0.00     0.197 A 
ATOM      6  N15 FTA A   1       6.663  11.881   8.843  1.00  0.00    -0.093 NA
ATOM      7  N19 FTA A   1       5.756  11.016   8.245  1.00  0.00    -0.231 N 
ATOM      8  N20 FTA A   1       5.746   9.816   8.941  1.00  0.00    -0.017 NA
ATOM      9  H15 FTA A   1       5.181  11.231   7.418  1.00  0.00     0.200 HD
ATOM     10  N16 FTA A   1       6.667   9.931   9.976  1.00  0.00    -0.090 NA
ENDBRANCH   2   5
BRANCH   1  11
ATOM     11  N1  FTA A   1       7.130  13.739  11.439  1.00  0.00    -0.389 N 
ATOM     12  H11 FTA A   1       7.597  14.392  10.792  1.00  0.00     0.159 HD
BRANCH  11  13
ATOM     13  C2  FTA A   1       5.812  14.064  11.861  1.00  0.00     0.028 A 
ATOM     14  C4  FTA A   1       4.711  13.283  11.519  1.00  0.00     0.031 A 
ATOM     15  C6  FTA A   1       3.423  13.778  11.768  1.00  0.00     0.031 A 
ATOM     16  C7  FTA A   1       3.209  15.027  12.345  1.00  0.00     0.032 A 
ATOM     17  C5  FTA A   1       4.314  15.780  12.702  1.00  0.00     0.031 A 
ATOM     18  C3  FTA A   1       5.598  15.313  12.451  1.00  0.00     0.031 A 
BRANCH  16  19
ATOM     19  N8  FTA A   1       1.929  15.634  12.414  1.00  0.00    -0.356 N 
ATOM     20  H1  FTA A   1       1.829  16.574  12.005  1.00  0.00     0.166 HD
BRANCH  19  21
ATOM     21  C24 FTA A   1       0.767  15.048  13.002  1.00  0.00     0.032 A 
ATOM     22  C26 FTA A   1       0.832  14.349  14.184  1.00  0.00     0.029 A 
ATOM     23  C28 FTA A   1      -0.289  13.663  14.610  1.00  0.00     0.002 A 
ATOM     24  C30 FTA A   1      -1.482  13.679  13.907  1.00  0.00     0.000 A 
ATOM     25  C29 FTA A   1      -1.571  14.403  12.748  1.00  0.00     0.002 A 
ATOM     26  C27 FTA A   1      -0.436  15.097  12.312  1.00  0.00     0.029 A 
ENDBRANCH  19  21
ENDBRANCH  16  19
ENDBRANCH  11  13
ENDBRANCH   1  11
TORSDOF 5
ENDMDL
MODEL 9
REMARK VINA RESULT:    -5.772      6.368     11.738
REMARK INTER + INTRA:          -8.394
REMARK INTER:                  -7.459
REMARK INTRA:                  -0.935
REMARK UNBOUND:                -0.935
REMARK  5 active torsions:
REMARK  status: ('A' for Active; 'I' for Inactive)
REMARK    1  A    between atoms: N8_1  and  C24_2 
REMARK    2  A    between atoms: N8_1  and  C7_8 
REMARK    3  A    between atoms: C2_13  and  N1_14 
REMARK    4  A    between atoms: N1_14  and  C17_15 
REMARK    5  A    between atoms: C14_16  and  C13_19 
ROOT
ATOM      1  C17 FTA A   1       7.753  12.458   8.831  1.00  0.00     0.142 C 
ATOM      2  C14 FTA A   1       7.731  11.177   9.252  1.00  0.00     0.158 C 
ATOM      3  C18 FTA A   1       6.487  10.440   9.272  1.00  0.00     0.069 C 
ATOM      4  N21 FTA A   1       5.405   9.988   9.289  1.00  0.00    -0.197 NA
ENDROOT
BRANCH   2   5
ATOM      5  C13 FTA A   1       8.993  10.529   9.677  1.00  0.00     0.197 A 
ATOM      6  N15 FTA A   1       9.154   9.685  10.774  1.00  0.00    -0.093 NA
ATOM      7  N19 FTA A   1      10.497   9.337  10.839  1.00  0.00    -0.231 N 
ATOM      8  N20 FTA A   1      11.179   9.955   9.801  1.00  0.00    -0.017 NA
ATOM      9  H15 FTA A   1      10.921   8.719  11.547  1.00  0.00     0.200 HD
ATOM     10  N16 FTA A   1      10.245  10.686   9.072  1.00  0.00    -0.090 NA
ENDBRANCH   2   5
BRANCH   1  11
ATOM     11  N1  FTA A   1       8.307  13.395   9.625  1.00  0.00    -0.389 N 
ATOM     12  H11 FTA A   1       9.275  13.681   9.419  1.00  0.00     0.159 HD
BRANCH  11  13
ATOM     13  C2  FTA A   1       7.657  14.019  10.724  1.00  0.00     0.028 A 
ATOM     14  C4  FTA A   1       7.399  15.387  10.753  1.00  0.00     0.031 A 
ATOM     15  C6  FTA A   1       6.969  15.973  11.952  1.00  0.00     0.031 A 
ATOM     16  C7  FTA A   1       6.795  15.231  13.117  1.00  0.00     0.032 A 
ATOM     17  C5  FTA A   1       7.032  13.869  13.066  1.00  0.00     0.031 A 
ATOM     18  C3  FTA A   1       7.471  13.271  11.891  1.00  0.00     0.031 A 
BRANCH  16  19
ATOM     19  N8  FTA A   1       6.567  15.829  14.383  1.00  0.00    -0.356 N 
ATOM     20  H1  FTA A   1       5.622  16.194  14.569  1.00  0.00     0.166 HD
BRANCH  19  21
ATOM     21  C24 FTA A   1       7.539  15.966  15.420  1.00  0.00     0.032 A 
ATOM     22  C26 FTA A   1       7.175  16.030  16.744  1.00  0.00     0.029 A 
ATOM     23  C28 FTA A   1       8.143  16.335  17.682  1.00  0.00     0.002 A 
ATOM     24  C30 FTA A   1       9.467  16.548  17.341  1.00  0.00     0.000 A 
ATOM     25  C29 FTA A   1       9.849  16.450  16.030  1.00  0.00     0.002 A 
ATOM     26  C27 FTA A   1       8.871  16.144  15.077  1.00  0.00     0.029 A 
ENDBRANCH  19  21
ENDBRANCH  16  19
ENDBRANCH  11  13
ENDBRANCH   1  11
TORSDOF 5
ENDMDL
