MODEL 1
REMARK VINA RESULT:    -5.942      0.000      0.000
REMARK INTER + INTRA:          -8.833
REMARK INTER:                  -7.712
REMARK INTRA:                  -1.121
REMARK UNBOUND:                -1.154
REMARK  5 active torsions:
REMARK  status: ('A' for Active; 'I' for Inactive)
REMARK    1  A    between atoms: N8_1  and  C24_2 
REMARK    2  A    between atoms: N8_1  and  C7_8 
REMARK    3  A    between atoms: C2_13  and  N1_14 
REMARK    4  A    between atoms: N1_14  and  C17_15 
REMARK    5  A    between atoms: C14_16  and  C13_19 
ROOT
ATOM      1  C17 FTA A   1       8.107  13.409  12.121  1.00  0.00     0.142 C 
ATOM      2  C14 FTA A   1       8.567  13.023  10.914  1.00  0.00     0.158 C 
ATOM      3  C18 FTA A   1       9.269  13.965  10.068  1.00  0.00     0.069 C 
ATOM      4  N21 FTA A   1       9.764  14.844   9.471  1.00  0.00    -0.197 NA
ENDROOT
BRANCH   2   5
ATOM      5  C13 FTA A   1       8.363  11.626  10.469  1.00  0.00     0.197 A 
ATOM      6  N15 FTA A   1       9.336  10.630  10.413  1.00  0.00    -0.093 NA
ATOM      7  N19 FTA A   1       8.736   9.488   9.899  1.00  0.00    -0.231 N 
ATOM      8  N20 FTA A   1       7.402   9.756   9.630  1.00  0.00    -0.017 NA
ATOM      9  H15 FTA A   1       9.207   8.585   9.741  1.00  0.00     0.200 HD
ATOM     10  N16 FTA A   1       7.166  11.078   9.994  1.00  0.00    -0.090 NA
ENDBRANCH   2   5
BRANCH   1  11
ATOM     11  N1  FTA A   1       6.811  13.196  12.422  1.00  0.00    -0.389 N 
ATOM     12  H11 FTA A   1       6.584  12.362  12.983  1.00  0.00     0.159 HD
BRANCH  11  13
ATOM     13  C2  FTA A   1       5.734  14.034  12.025  1.00  0.00     0.028 A 
ATOM     14  C4  FTA A   1       5.684  15.385  12.358  1.00  0.00     0.031 A 
ATOM     15  C6  FTA A   1       4.496  16.096  12.140  1.00  0.00     0.031 A 
ATOM     16  C7  FTA A   1       3.362  15.494  11.602  1.00  0.00     0.032 A 
ATOM     17  C5  FTA A   1       3.435  14.157  11.253  1.00  0.00     0.031 A 
ATOM     18  C3  FTA A   1       4.599  13.432  11.474  1.00  0.00     0.031 A 
BRANCH  16  19
ATOM     19  N8  FTA A   1       2.096  16.132  11.567  1.00  0.00    -0.356 N 
ATOM     20  H1  FTA A   1       2.017  16.995  11.009  1.00  0.00     0.166 HD
BRANCH  19  21
ATOM     21  C24 FTA A   1       0.922  15.678  12.240  1.00  0.00     0.032 A 
ATOM     22  C26 FTA A   1       0.961  15.245  13.544  1.00  0.00     0.029 A 
ATOM     23  C28 FTA A   1      -0.169  14.657  14.082  1.00  0.00     0.002 A 
ATOM     24  C30 FTA A   1      -1.345  14.517  13.365  1.00  0.00     0.000 A 
ATOM     25  C29 FTA A   1      -1.409  14.979  12.078  1.00  0.00     0.002 A 
ATOM     26  C27 FTA A   1      -0.266  15.571  11.530  1.00  0.00     0.029 A 
ENDBRANCH  19  21
ENDBRANCH  16  19
ENDBRANCH  11  13
ENDBRANCH   1  11
TORSDOF 5
ENDMDL
MODEL 2
REMARK VINA RESULT:    -5.707      0.918      1.345
REMARK INTER + INTRA:          -8.529
REMARK INTER:                  -7.562
REMARK INTRA:                  -0.968
REMARK UNBOUND:                -1.154
REMARK  5 active torsions:
REMARK  status: ('A' for Active; 'I' for Inactive)
REMARK    1  A    between atoms: N8_1  and  C24_2 
REMARK    2  A    between atoms: N8_1  and  C7_8 
REMARK    3  A    between atoms: C2_13  and  N1_14 
REMARK    4  A    between atoms: N1_14  and  C17_15 
REMARK    5  A    between atoms: C14_16  and  C13_19 
ROOT
ATOM      1  C17 FTA A   1       7.879  13.666  11.353  1.00  0.00     0.142 C 
ATOM      2  C14 FTA A   1       8.708  12.719  10.873  1.00  0.00     0.158 C 
ATOM      3  C18 FTA A   1      10.130  12.976  10.780  1.00  0.00     0.069 C 
ATOM      4  N21 FTA A   1      11.241  13.342  10.709  1.00  0.00    -0.197 NA
ENDROOT
BRANCH   2   5
ATOM      5  C13 FTA A   1       8.156  11.410  10.456  1.00  0.00     0.197 A 
ATOM      6  N15 FTA A   1       8.544  10.162  10.939  1.00  0.00    -0.093 NA
ATOM      7  N19 FTA A   1       7.812   9.202  10.253  1.00  0.00    -0.231 N 
ATOM      8  N20 FTA A   1       6.972   9.832   9.346  1.00  0.00    -0.017 NA
ATOM      9  H15 FTA A   1       7.880   8.184  10.395  1.00  0.00     0.200 HD
ATOM     10  N16 FTA A   1       7.176  11.202   9.478  1.00  0.00    -0.090 NA
ENDBRANCH   2   5
BRANCH   1  11
ATOM     11  N1  FTA A   1       6.806  14.024  10.622  1.00  0.00    -0.389 N 
ATOM     12  H11 FTA A   1       6.886  13.959   9.596  1.00  0.00     0.159 HD
BRANCH  11  13
ATOM     13  C2  FTA A   1       5.572  14.486  11.156  1.00  0.00     0.028 A 
ATOM     14  C4  FTA A   1       4.425  13.697  11.159  1.00  0.00     0.031 A 
ATOM     15  C6  FTA A   1       3.195  14.287  11.484  1.00  0.00     0.031 A 
ATOM     16  C7  FTA A   1       3.084  15.638  11.802  1.00  0.00     0.032 A 
ATOM     17  C5  FTA A   1       4.237  16.402  11.819  1.00  0.00     0.031 A 
ATOM     18  C3  FTA A   1       5.463  15.840  11.487  1.00  0.00     0.031 A 
BRANCH  16  19
ATOM     19  N8  FTA A   1       1.835  16.298  11.928  1.00  0.00    -0.356 N 
ATOM     20  H1  FTA A   1       1.774  17.265  11.579  1.00  0.00     0.166 HD
BRANCH  19  21
ATOM     21  C24 FTA A   1       0.654  15.732  12.499  1.00  0.00     0.032 A 
ATOM     22  C26 FTA A   1       0.634  15.255  13.788  1.00  0.00     0.029 A 
ATOM     23  C28 FTA A   1      -0.482  14.566  14.222  1.00  0.00     0.002 A 
ATOM     24  C30 FTA A   1      -1.591  14.365  13.417  1.00  0.00     0.000 A 
ATOM     25  C29 FTA A   1      -1.598  14.869  12.143  1.00  0.00     0.002 A 
ATOM     26  C27 FTA A   1      -0.468  15.564  11.700  1.00  0.00     0.029 A 
ENDBRANCH  19  21
ENDBRANCH  16  19
ENDBRANCH  11  13
ENDBRANCH   1  11
TORSDOF 5
ENDMDL
MODEL 3
REMARK VINA RESULT:    -5.652      2.074      8.445
REMARK INTER + INTRA:          -8.458
REMARK INTER:                  -7.469
REMARK INTRA:                  -0.990
REMARK UNBOUND:                -1.154
REMARK  5 active torsions:
REMARK  status: ('A' for Active; 'I' for Inactive)
REMARK    1  A    between atoms: N8_1  and  C24_2 
REMARK    2  A    between atoms: N8_1  and  C7_8 
REMARK    3  A    between atoms: C2_13  and  N1_14 
REMARK    4  A    between atoms: N1_14  and  C17_15 
REMARK    5  A    between atoms: C14_16  and  C13_19 
ROOT
ATOM      1  C17 FTA A   1       2.264  16.271  10.860  1.00  0.00     0.142 C 
ATOM      2  C14 FTA A   1       1.020  16.503  11.324  1.00  0.00     0.158 C 
ATOM      3  C18 FTA A   1       0.235  17.594  10.788  1.00  0.00     0.069 C 
ATOM      4  N21 FTA A   1      -0.259  18.541  10.305  1.00  0.00    -0.197 NA
ENDROOT
BRANCH   2   5
ATOM      5  C13 FTA A   1       0.459  15.622  12.374  1.00  0.00     0.197 A 
ATOM      6  N15 FTA A   1       1.018  15.378  13.627  1.00  0.00    -0.093 NA
ATOM      7  N19 FTA A   1       0.200  14.463  14.278  1.00  0.00    -0.231 N 
ATOM      8  N20 FTA A   1      -0.861  14.130  13.448  1.00  0.00    -0.017 NA
ATOM      9  H15 FTA A   1       0.356  14.091  15.226  1.00  0.00     0.200 HD
ATOM     10  N16 FTA A   1      -0.708  14.856  12.272  1.00  0.00    -0.090 NA
ENDBRANCH   2   5
BRANCH   1  11
ATOM     11  N1  FTA A   1       3.281  16.184  11.738  1.00  0.00    -0.389 N 
ATOM     12  H11 FTA A   1       3.279  16.838  12.535  1.00  0.00     0.159 HD
BRANCH  11  13
ATOM     13  C2  FTA A   1       4.358  15.260  11.650  1.00  0.00     0.028 A 
ATOM     14  C4  FTA A   1       4.203  13.993  11.095  1.00  0.00     0.031 A 
ATOM     15  C6  FTA A   1       5.232  13.054  11.247  1.00  0.00     0.031 A 
ATOM     16  C7  FTA A   1       6.406  13.347  11.937  1.00  0.00     0.032 A 
ATOM     17  C5  FTA A   1       6.555  14.619  12.460  1.00  0.00     0.031 A 
ATOM     18  C3  FTA A   1       5.540  15.559  12.333  1.00  0.00     0.031 A 
BRANCH  16  19
ATOM     19  N8  FTA A   1       7.363  12.359  12.282  1.00  0.00    -0.356 N 
ATOM     20  H1  FTA A   1       7.253  11.892  13.194  1.00  0.00     0.166 HD
BRANCH  19  21
ATOM     21  C24 FTA A   1       8.466  11.957  11.469  1.00  0.00     0.032 A 
ATOM     22  C26 FTA A   1       8.450  10.775  10.766  1.00  0.00     0.029 A 
ATOM     23  C28 FTA A   1       9.610  10.362  10.140  1.00  0.00     0.002 A 
ATOM     24  C30 FTA A   1      10.776  11.108  10.168  1.00  0.00     0.000 A 
ATOM     25  C29 FTA A   1      10.794  12.305  10.833  1.00  0.00     0.002 A 
ATOM     26  C27 FTA A   1       9.621  12.725  11.471  1.00  0.00     0.029 A 
ENDBRANCH  19  21
ENDBRANCH  16  19
ENDBRANCH  11  13
ENDBRANCH   1  11
TORSDOF 5
ENDMDL
MODEL 4
REMARK VINA RESULT:    -5.549      2.168      8.756
REMARK INTER + INTRA:          -8.325
REMARK INTER:                  -7.400
REMARK INTRA:                  -0.925
REMARK UNBOUND:                -1.154
REMARK  5 active torsions:
REMARK  status: ('A' for Active; 'I' for Inactive)
REMARK    1  A    between atoms: N8_1  and  C24_2 
REMARK    2  A    between atoms: N8_1  and  C7_8 
REMARK    3  A    between atoms: C2_13  and  N1_14 
REMARK    4  A    between atoms: N1_14  and  C17_15 
REMARK    5  A    between atoms: C14_16  and  C13_19 
ROOT
ATOM      1  C17 FTA A   1       2.266  14.905  11.860  1.00  0.00     0.142 C 
ATOM      2  C14 FTA A   1       1.283  15.673  12.372  1.00  0.00     0.158 C 
ATOM      3  C18 FTA A   1      -0.002  15.747  11.710  1.00  0.00     0.069 C 
ATOM      4  N21 FTA A   1      -0.964  15.755  11.040  1.00  0.00    -0.197 NA
ENDROOT
BRANCH   2   5
ATOM      5  C13 FTA A   1       1.525  16.427  13.623  1.00  0.00     0.197 A 
ATOM      6  N15 FTA A   1       2.592  17.289  13.871  1.00  0.00    -0.093 NA
ATOM      7  N19 FTA A   1       2.463  17.747  15.176  1.00  0.00    -0.231 N 
ATOM      8  N20 FTA A   1       1.333  17.183  15.748  1.00  0.00    -0.017 NA
ATOM      9  H15 FTA A   1       3.106  18.403  15.644  1.00  0.00     0.200 HD
ATOM     10  N16 FTA A   1       0.743  16.372  14.783  1.00  0.00    -0.090 NA
ENDBRANCH   2   5
BRANCH   1  11
ATOM     11  N1  FTA A   1       3.474  15.457  11.637  1.00  0.00    -0.389 N 
ATOM     12  H11 FTA A   1       3.513  16.478  11.500  1.00  0.00     0.159 HD
BRANCH  11  13
ATOM     13  C2  FTA A   1       4.699  14.739  11.575  1.00  0.00     0.028 A 
ATOM     14  C4  FTA A   1       4.814  13.525  10.902  1.00  0.00     0.031 A 
ATOM     15  C6  FTA A   1       5.976  12.760  11.072  1.00  0.00     0.031 A 
ATOM     16  C7  FTA A   1       7.020  13.174  11.895  1.00  0.00     0.032 A 
ATOM     17  C5  FTA A   1       6.901  14.394  12.537  1.00  0.00     0.031 A 
ATOM     18  C3  FTA A   1       5.752  15.160  12.392  1.00  0.00     0.031 A 
BRANCH  16  19
ATOM     19  N8  FTA A   1       8.104  12.329  12.246  1.00  0.00    -0.356 N 
ATOM     20  H1  FTA A   1       8.236  12.121  13.246  1.00  0.00     0.166 HD
BRANCH  19  21
ATOM     21  C24 FTA A   1       9.026  11.743  11.327  1.00  0.00     0.032 A 
ATOM     22  C26 FTA A   1       8.755  10.553  10.694  1.00  0.00     0.029 A 
ATOM     23  C28 FTA A   1       9.756   9.954   9.953  1.00  0.00     0.002 A 
ATOM     24  C30 FTA A   1      11.009  10.522   9.801  1.00  0.00     0.000 A 
ATOM     25  C29 FTA A   1      11.279  11.726  10.395  1.00  0.00     0.002 A 
ATOM     26  C27 FTA A   1      10.269  12.334  11.148  1.00  0.00     0.029 A 
ENDBRANCH  19  21
ENDBRANCH  16  19
ENDBRANCH  11  13
ENDBRANCH   1  11
TORSDOF 5
ENDMDL
MODEL 5
REMARK VINA RESULT:    -5.455      2.248      8.575
REMARK INTER + INTRA:          -8.204
REMARK INTER:                  -7.294
REMARK INTRA:                  -0.910
REMARK UNBOUND:                -1.154
REMARK  5 active torsions:
REMARK  status: ('A' for Active; 'I' for Inactive)
REMARK    1  A    between atoms: N8_1  and  C24_2 
REMARK    2  A    between atoms: N8_1  and  C7_8 
REMARK    3  A    between atoms: C2_13  and  N1_14 
REMARK    4  A    between atoms: N1_14  and  C17_15 
REMARK    5  A    between atoms: C14_16  and  C13_19 
ROOT
ATOM      1  C17 FTA A   1       2.913  16.117  11.776  1.00  0.00     0.142 C 
ATOM      2  C14 FTA A   1       2.217  16.347  12.907  1.00  0.00     0.158 C 
ATOM      3  C18 FTA A   1       2.727  17.266  13.901  1.00  0.00     0.069 C 
ATOM      4  N21 FTA A   1       3.287  17.986  14.638  1.00  0.00    -0.197 NA
ENDROOT
BRANCH   2   5
ATOM      5  C13 FTA A   1       0.920  15.663  13.115  1.00  0.00     0.197 A 
ATOM      6  N15 FTA A   1       0.019  15.288  12.120  1.00  0.00    -0.093 NA
ATOM      7  N19 FTA A   1      -1.083  14.721  12.747  1.00  0.00    -0.231 N 
ATOM      8  N20 FTA A   1      -0.885  14.739  14.120  1.00  0.00    -0.017 NA
ATOM      9  H15 FTA A   1      -1.916  14.347  12.269  1.00  0.00     0.200 HD
ATOM     10  N16 FTA A   1       0.361  15.312  14.350  1.00  0.00    -0.090 NA
ENDBRANCH   2   5
BRANCH   1  11
ATOM     11  N1  FTA A   1       3.198  14.846  11.433  1.00  0.00    -0.389 N 
ATOM     12  H11 FTA A   1       2.410  14.237  11.169  1.00  0.00     0.159 HD
BRANCH  11  13
ATOM     13  C2  FTA A   1       4.502  14.282  11.407  1.00  0.00     0.028 A 
ATOM     14  C4  FTA A   1       4.793  13.120  10.697  1.00  0.00     0.031 A 
ATOM     15  C6  FTA A   1       6.029  12.491  10.897  1.00  0.00     0.031 A 
ATOM     16  C7  FTA A   1       6.977  12.991  11.787  1.00  0.00     0.032 A 
ATOM     17  C5  FTA A   1       6.684  14.160  12.466  1.00  0.00     0.031 A 
ATOM     18  C3  FTA A   1       5.458  14.790  12.291  1.00  0.00     0.031 A 
BRANCH  16  19
ATOM     19  N8  FTA A   1       8.138  12.266  12.161  1.00  0.00    -0.356 N 
ATOM     20  H1  FTA A   1       8.277  12.083  13.165  1.00  0.00     0.166 HD
BRANCH  19  21
ATOM     21  C24 FTA A   1       9.129  11.770  11.260  1.00  0.00     0.032 A 
ATOM     22  C26 FTA A   1       8.964  10.580  10.593  1.00  0.00     0.029 A 
ATOM     23  C28 FTA A   1      10.029  10.072   9.873  1.00  0.00     0.002 A 
ATOM     24  C30 FTA A   1      11.242  10.733   9.774  1.00  0.00     0.000 A 
ATOM     25  C29 FTA A   1      11.406  11.938  10.404  1.00  0.00     0.002 A 
ATOM     26  C27 FTA A   1      10.330  12.453  11.136  1.00  0.00     0.029 A 
ENDBRANCH  19  21
ENDBRANCH  16  19
ENDBRANCH  11  13
ENDBRANCH   1  11
TORSDOF 5
ENDMDL
MODEL 6
REMARK VINA RESULT:    -5.438      1.135      2.731
REMARK INTER + INTRA:          -8.182
REMARK INTER:                  -7.255
REMARK INTRA:                  -0.927
REMARK UNBOUND:                -1.154
REMARK  5 active torsions:
REMARK  status: ('A' for Active; 'I' for Inactive)
REMARK    1  A    between atoms: N8_1  and  C24_2 
REMARK    2  A    between atoms: N8_1  and  C7_8 
REMARK    3  A    between atoms: C2_13  and  N1_14 
REMARK    4  A    between atoms: N1_14  and  C17_15 
REMARK    5  A    between atoms: C14_16  and  C13_19 
ROOT
ATOM      1  C17 FTA A   1       7.320  12.648  10.417  1.00  0.00     0.142 C 
ATOM      2  C14 FTA A   1       8.447  11.922  10.557  1.00  0.00     0.158 C 
ATOM      3  C18 FTA A   1       8.379  10.478  10.621  1.00  0.00     0.069 C 
ATOM      4  N21 FTA A   1       8.167   9.328  10.716  1.00  0.00    -0.197 NA
ENDROOT
BRANCH   2   5
ATOM      5  C13 FTA A   1       9.755  12.613  10.628  1.00  0.00     0.197 A 
ATOM      6  N15 FTA A   1       9.954  13.991  10.679  1.00  0.00    -0.093 NA
ATOM      7  N19 FTA A   1      11.325  14.215  10.690  1.00  0.00    -0.231 N 
ATOM      8  N20 FTA A   1      11.985  12.995  10.643  1.00  0.00    -0.017 NA
ATOM      9  H15 FTA A   1      11.779  15.139  10.727  1.00  0.00     0.200 HD
ATOM     10  N16 FTA A   1      11.013  12.001  10.616  1.00  0.00    -0.090 NA
ENDBRANCH   2   5
BRANCH   1  11
ATOM     11  N1  FTA A   1       7.074  13.643  11.291  1.00  0.00    -0.389 N 
ATOM     12  H11 FTA A   1       7.883  14.079  11.756  1.00  0.00     0.159 HD
BRANCH  11  13
ATOM     13  C2  FTA A   1       5.782  14.137  11.621  1.00  0.00     0.028 A 
ATOM     14  C4  FTA A   1       4.622  13.413  11.358  1.00  0.00     0.031 A 
ATOM     15  C6  FTA A   1       3.380  14.047  11.493  1.00  0.00     0.031 A 
ATOM     16  C7  FTA A   1       3.267  15.380  11.878  1.00  0.00     0.032 A 
ATOM     17  C5  FTA A   1       4.428  16.079  12.159  1.00  0.00     0.031 A 
ATOM     18  C3  FTA A   1       5.670  15.472  12.019  1.00  0.00     0.031 A 
BRANCH  16  19
ATOM     19  N8  FTA A   1       2.045  16.098  11.819  1.00  0.00    -0.356 N 
ATOM     20  H1  FTA A   1       2.064  17.026  11.372  1.00  0.00     0.166 HD
BRANCH  19  21
ATOM     21  C24 FTA A   1       0.792  15.640  12.327  1.00  0.00     0.032 A 
ATOM     22  C26 FTA A   1       0.669  15.150  13.606  1.00  0.00     0.029 A 
ATOM     23  C28 FTA A   1      -0.526  14.565  13.979  1.00  0.00     0.002 A 
ATOM     24  C30 FTA A   1      -1.612  14.483  13.123  1.00  0.00     0.000 A 
ATOM     25  C29 FTA A   1      -1.514  15.002  11.860  1.00  0.00     0.002 A 
ATOM     26  C27 FTA A   1      -0.304  15.592  11.478  1.00  0.00     0.029 A 
ENDBRANCH  19  21
ENDBRANCH  16  19
ENDBRANCH  11  13
ENDBRANCH   1  11
TORSDOF 5
ENDMDL
MODEL 7
REMARK VINA RESULT:    -5.372      3.791      4.544
REMARK INTER + INTRA:          -8.097
REMARK INTER:                  -7.076
REMARK INTRA:                  -1.020
REMARK UNBOUND:                -1.154
REMARK  5 active torsions:
REMARK  status: ('A' for Active; 'I' for Inactive)
REMARK    1  A    between atoms: N8_1  and  C24_2 
REMARK    2  A    between atoms: N8_1  and  C7_8 
REMARK    3  A    between atoms: C2_13  and  N1_14 
REMARK    4  A    between atoms: N1_14  and  C17_15 
REMARK    5  A    between atoms: C14_16  and  C13_19 
ROOT
ATOM      1  C17 FTA A   1       8.558  13.264  11.698  1.00  0.00     0.142 C 
ATOM      2  C14 FTA A   1       8.395  12.214  10.870  1.00  0.00     0.158 C 
ATOM      3  C18 FTA A   1       9.522  11.370  10.534  1.00  0.00     0.069 C 
ATOM      4  N21 FTA A   1      10.529  10.813  10.307  1.00  0.00    -0.197 NA
ENDROOT
BRANCH   2   5
ATOM      5  C13 FTA A   1       7.052  11.922  10.319  1.00  0.00     0.197 A 
ATOM      6  N15 FTA A   1       5.872  12.596  10.629  1.00  0.00    -0.093 NA
ATOM      7  N19 FTA A   1       4.843  11.977   9.932  1.00  0.00    -0.231 N 
ATOM      8  N20 FTA A   1       5.362  10.924   9.193  1.00  0.00    -0.017 NA
ATOM      9  H15 FTA A   1       3.851  12.255   9.960  1.00  0.00     0.200 HD
ATOM     10  N16 FTA A   1       6.733  10.895   9.423  1.00  0.00    -0.090 NA
ENDBRANCH   2   5
BRANCH   1  11
ATOM     11  N1  FTA A   1       8.139  14.481  11.299  1.00  0.00    -0.389 N 
ATOM     12  H11 FTA A   1       8.236  14.713  10.299  1.00  0.00     0.159 HD
BRANCH  11  13
ATOM     13  C2  FTA A   1       7.574  15.468  12.150  1.00  0.00     0.028 A 
ATOM     14  C4  FTA A   1       7.947  16.808  12.081  1.00  0.00     0.031 A 
ATOM     15  C6  FTA A   1       7.529  17.683  13.093  1.00  0.00     0.031 A 
ATOM     16  C7  FTA A   1       6.753  17.256  14.167  1.00  0.00     0.032 A 
ATOM     17  C5  FTA A   1       6.369  15.927  14.208  1.00  0.00     0.031 A 
ATOM     18  C3  FTA A   1       6.785  15.041  13.222  1.00  0.00     0.031 A 
BRANCH  16  19
ATOM     19  N8  FTA A   1       6.495  18.068  15.301  1.00  0.00    -0.356 N 
ATOM     20  H1  FTA A   1       7.051  18.930  15.401  1.00  0.00     0.166 HD
BRANCH  19  21
ATOM     21  C24 FTA A   1       5.530  17.789  16.316  1.00  0.00     0.032 A 
ATOM     22  C26 FTA A   1       5.869  17.118  17.467  1.00  0.00     0.029 A 
ATOM     23  C28 FTA A   1       4.859  16.728  18.327  1.00  0.00     0.002 A 
ATOM     24  C30 FTA A   1       3.526  17.015  18.087  1.00  0.00     0.000 A 
ATOM     25  C29 FTA A   1       3.180  17.716  16.963  1.00  0.00     0.002 A 
ATOM     26  C27 FTA A   1       4.200  18.109  16.088  1.00  0.00     0.029 A 
ENDBRANCH  19  21
ENDBRANCH  16  19
ENDBRANCH  11  13
ENDBRANCH   1  11
TORSDOF 5
ENDMDL
MODEL 8
REMARK VINA RESULT:    -5.320      3.688      4.579
REMARK INTER + INTRA:          -8.029
REMARK INTER:                  -7.071
REMARK INTRA:                  -0.958
REMARK UNBOUND:                -1.154
REMARK  5 active torsions:
REMARK  status: ('A' for Active; 'I' for Inactive)
REMARK    1  A    between atoms: N8_1  and  C24_2 
REMARK    2  A    between atoms: N8_1  and  C7_8 
REMARK    3  A    between atoms: C2_13  and  N1_14 
REMARK    4  A    between atoms: N1_14  and  C17_15 
REMARK    5  A    between atoms: C14_16  and  C13_19 
ROOT
ATOM      1  C17 FTA A   1       7.272  13.591   9.823  1.00  0.00     0.142 C 
ATOM      2  C14 FTA A   1       6.965  12.279   9.780  1.00  0.00     0.158 C 
ATOM      3  C18 FTA A   1       5.587  11.858   9.648  1.00  0.00     0.069 C 
ATOM      4  N21 FTA A   1       4.432  11.666   9.598  1.00  0.00    -0.197 NA
ENDROOT
BRANCH   2   5
ATOM      5  C13 FTA A   1       8.051  11.275   9.853  1.00  0.00     0.197 A 
ATOM      6  N15 FTA A   1       7.889   9.896   9.972  1.00  0.00    -0.093 NA
ATOM      7  N19 FTA A   1       9.156   9.332  10.053  1.00  0.00    -0.231 N 
ATOM      8  N20 FTA A   1      10.107  10.339   9.988  1.00  0.00    -0.017 NA
ATOM      9  H15 FTA A   1       9.357   8.326  10.146  1.00  0.00     0.200 HD
ATOM     10  N16 FTA A   1       9.425  11.544   9.853  1.00  0.00    -0.090 NA
ENDBRANCH   2   5
BRANCH   1  11
ATOM     11  N1  FTA A   1       8.024  14.051  10.841  1.00  0.00    -0.389 N 
ATOM     12  H11 FTA A   1       8.974  13.665  10.943  1.00  0.00     0.159 HD
BRANCH  11  13
ATOM     13  C2  FTA A   1       7.607  15.028  11.786  1.00  0.00     0.028 A 
ATOM     14  C4  FTA A   1       8.051  16.347  11.733  1.00  0.00     0.031 A 
ATOM     15  C6  FTA A   1       7.790  17.196  12.817  1.00  0.00     0.031 A 
ATOM     16  C7  FTA A   1       7.102  16.763  13.947  1.00  0.00     0.032 A 
ATOM     17  C5  FTA A   1       6.645  15.458  13.973  1.00  0.00     0.031 A 
ATOM     18  C3  FTA A   1       6.905  14.596  12.915  1.00  0.00     0.031 A 
BRANCH  16  19
ATOM     19  N8  FTA A   1       7.008  17.535  15.134  1.00  0.00    -0.356 N 
ATOM     20  H1  FTA A   1       7.792  18.168  15.348  1.00  0.00     0.166 HD
BRANCH  19  21
ATOM     21  C24 FTA A   1       5.918  17.506  16.055  1.00  0.00     0.032 A 
ATOM     22  C26 FTA A   1       6.081  17.078  17.351  1.00  0.00     0.029 A 
ATOM     23  C28 FTA A   1       4.958  16.910  18.139  1.00  0.00     0.002 A 
ATOM     24  C30 FTA A   1       3.681  17.187  17.681  1.00  0.00     0.000 A 
ATOM     25  C29 FTA A   1       3.509  17.651  16.404  1.00  0.00     0.002 A 
ATOM     26  C27 FTA A   1       4.644  17.818  15.603  1.00  0.00     0.029 A 
ENDBRANCH  19  21
ENDBRANCH  16  19
ENDBRANCH  11  13
ENDBRANCH   1  11
TORSDOF 5
ENDMDL
MODEL 9
REMARK VINA RESULT:    -5.226     11.380     13.359
REMARK INTER + INTRA:          -7.908
REMARK INTER:                  -6.754
REMARK INTRA:                  -1.154
REMARK UNBOUND:                -1.154
REMARK  5 active torsions:
REMARK  status: ('A' for Active; 'I' for Inactive)
REMARK    1  A    between atoms: N8_1  and  C24_2 
REMARK    2  A    between atoms: N8_1  and  C7_8 
REMARK    3  A    between atoms: C2_13  and  N1_14 
REMARK    4  A    between atoms: N1_14  and  C17_15 
REMARK    5  A    between atoms: C14_16  and  C13_19 
ROOT
ATOM      1  C17 FTA A   1       7.634  19.909  18.616  1.00  0.00     0.142 C 
ATOM      2  C14 FTA A   1       6.343  19.681  18.929  1.00  0.00     0.158 C 
ATOM      3  C18 FTA A   1       5.520  20.752  19.447  1.00  0.00     0.069 C 
ATOM      4  N21 FTA A   1       4.993  21.693  19.908  1.00  0.00    -0.197 NA
ENDROOT
BRANCH   2   5
ATOM      5  C13 FTA A   1       5.772  18.330  18.722  1.00  0.00     0.197 A 
ATOM      6  N15 FTA A   1       6.039  17.479  17.652  1.00  0.00    -0.093 NA
ATOM      7  N19 FTA A   1       5.265  16.339  17.821  1.00  0.00    -0.231 N 
ATOM      8  N20 FTA A   1       4.515  16.466  18.982  1.00  0.00    -0.017 NA
ATOM      9  H15 FTA A   1       5.249  15.528  17.187  1.00  0.00     0.200 HD
ATOM     10  N16 FTA A   1       4.836  17.696  19.548  1.00  0.00    -0.090 NA
ENDBRANCH   2   5
BRANCH   1  11
ATOM     11  N1  FTA A   1       8.583  19.110  19.142  1.00  0.00    -0.389 N 
ATOM     12  H11 FTA A   1       8.883  18.298  18.585  1.00  0.00     0.159 HD
BRANCH  11  13
ATOM     13  C2  FTA A   1       9.201  19.303  20.408  1.00  0.00     0.028 A 
ATOM     14  C4  FTA A   1       9.157  18.337  21.409  1.00  0.00     0.031 A 
ATOM     15  C6  FTA A   1       9.580  18.676  22.701  1.00  0.00     0.031 A 
ATOM     16  C7  FTA A   1      10.043  19.951  23.017  1.00  0.00     0.032 A 
ATOM     17  C5  FTA A   1      10.105  20.892  22.005  1.00  0.00     0.031 A 
ATOM     18  C3  FTA A   1       9.676  20.580  20.721  1.00  0.00     0.031 A 
BRANCH  16  19
ATOM     19  N8  FTA A   1      10.277  20.376  24.350  1.00  0.00    -0.356 N 
ATOM     20  H1  FTA A   1      11.248  20.601  24.610  1.00  0.00     0.166 HD
BRANCH  19  21
ATOM     21  C24 FTA A   1       9.278  20.517  25.360  1.00  0.00     0.032 A 
ATOM     22  C26 FTA A   1       9.519  20.162  26.666  1.00  0.00     0.029 A 
ATOM     23  C28 FTA A   1       8.463  20.159  27.557  1.00  0.00     0.002 A 
ATOM     24  C30 FTA A   1       7.181  20.532  27.190  1.00  0.00     0.000 A 
ATOM     25  C29 FTA A   1       6.936  20.925  25.902  1.00  0.00     0.002 A 
ATOM     26  C27 FTA A   1       8.003  20.924  24.996  1.00  0.00     0.029 A 
ENDBRANCH  19  21
ENDBRANCH  16  19
ENDBRANCH  11  13
ENDBRANCH   1  11
TORSDOF 5
ENDMDL
