MODEL 1
REMARK VINA RESULT:    -8.280      0.000      0.000
REMARK INTER + INTRA:         -12.511
REMARK INTER:                 -10.534
REMARK INTRA:                  -1.977
REMARK UNBOUND:                -2.053
REMARK  5 active torsions:
REMARK  status: ('A' for Active; 'I' for Inactive)
REMARK    1  A    between atoms: C_7  and  C_8 
REMARK    2  A    between atoms: C_8  and  C_9 
REMARK    3  A    between atoms: C_16  and  C_20 
REMARK    4  A    between atoms: C_17  and  O_19 
REMARK       I    between atoms: C_20  and  N_22 
REMARK    5  A    between atoms: N_22  and  C_24 
ROOT
HETATM    1  C   UNL     1       2.810  11.838  23.777  0.00  0.00     0.071 C 
HETATM    2  N   UNL     1       2.336  10.937  24.654  0.00  0.00    -0.178 NA
HETATM    3  N   UNL     1       3.174   9.897  24.537  0.00  0.00    -0.277 N 
HETATM    4  H   UNL     1       3.007   9.081  25.115  0.00  0.00     0.189 HD
HETATM    5  C   UNL     1       3.976  11.355  23.107  0.00  0.00     0.020 C 
HETATM    6  C   UNL     1       4.122  10.050  23.567  0.00  0.00     0.065 C 
HETATM    7  C   UNL     1       4.875  11.834  22.127  0.00  0.00     0.035 C 
HETATM    8  C   UNL     1       5.843  10.955  21.600  0.00  0.00     0.066 C 
HETATM    9  C   UNL     1       5.849   9.609  21.997  0.00  0.00     0.083 C 
HETATM   10  C   UNL     1       5.044   9.145  23.038  0.00  0.00     0.069 C 
ENDROOT
BRANCH   8  11
HETATM   11  C   UNL     1       6.825  11.411  20.573  0.00  0.00     0.260 C 
HETATM   12  O   UNL     1       6.813  10.776  19.513  0.00  0.00    -0.267 OA
HETATM   13  N   UNL     1       7.658  12.525  20.798  0.00  0.00    -0.318 N 
HETATM   14  C   UNL     1       8.369  13.080  19.646  0.00  0.00     0.159 C 
BRANCH  13  15
HETATM   15  C   UNL     1       7.984  13.075  22.078  0.00  0.00     0.037 A 
HETATM   16  C   UNL     1       7.455  14.306  22.492  0.00  0.00     0.031 A 
HETATM   17  C   UNL     1       7.843  14.891  23.706  0.00  0.00     0.026 A 
HETATM   18  C   UNL     1       8.731  14.219  24.544  0.00  0.00     0.034 A 
HETATM   19 CL   UNL     1       9.224  14.952  26.012  0.00  0.00    -0.084 Cl
HETATM   20  C   UNL     1       9.204  12.961  24.185  0.00  0.00     0.026 A 
HETATM   21  C   UNL     1       8.821  12.383  22.961  0.00  0.00     0.031 A 
ENDBRANCH  13  15
ENDBRANCH   8  11
BRANCH   9  22
HETATM   22  O   UNL     1       6.610   8.655  21.371  0.00  0.00    -0.360 OA
HETATM   23  H   UNL     1       7.106   9.114  20.656  0.00  0.00     0.217 HD
ENDBRANCH   9  22
BRANCH   1  24
HETATM   24  C   UNL     1       2.022  13.083  23.502  0.00  0.00     0.100 C 
BRANCH  24  25
HETATM   25  C   UNL     1       2.718  14.239  24.175  0.00  0.00    -0.052 A 
HETATM   26  C   UNL     1       2.418  14.553  25.510  0.00  0.00     0.014 A 
HETATM   27  C   UNL     1       3.002  15.659  26.139  0.00  0.00    -0.061 A 
HETATM   28  C   UNL     1       2.566  16.067  27.514  0.00  0.00     0.048 C 
HETATM   29  C   UNL     1       3.935  16.430  25.439  0.00  0.00     0.007 A 
HETATM   30  C   UNL     1       4.292  16.091  24.135  0.00  0.00     0.001 A 
HETATM   31  C   UNL     1       3.688  15.002  23.508  0.00  0.00     0.007 A 
ENDBRANCH  24  25
ENDBRANCH   1  24
TORSDOF 5
ENDMDL
MODEL 2
REMARK VINA RESULT:    -8.254      3.078      4.641
REMARK INTER + INTRA:         -12.478
REMARK INTER:                 -10.460
REMARK INTRA:                  -2.018
REMARK UNBOUND:                -2.053
REMARK  5 active torsions:
REMARK  status: ('A' for Active; 'I' for Inactive)
REMARK    1  A    between atoms: C_7  and  C_8 
REMARK    2  A    between atoms: C_8  and  C_9 
REMARK    3  A    between atoms: C_16  and  C_20 
REMARK    4  A    between atoms: C_17  and  O_19 
REMARK       I    between atoms: C_20  and  N_22 
REMARK    5  A    between atoms: N_22  and  C_24 
ROOT
HETATM    1  C   UNL     1       5.877  15.332  24.788  0.00  0.00     0.071 C 
HETATM    2  N   UNL     1       5.679  15.327  26.117  0.00  0.00    -0.178 NA
HETATM    3  N   UNL     1       6.757  14.700  26.607  0.00  0.00    -0.277 N 
HETATM    4  H   UNL     1       6.825  14.576  27.610  0.00  0.00     0.189 HD
HETATM    5  C   UNL     1       7.113  14.704  24.441  0.00  0.00     0.020 C 
HETATM    6  C   UNL     1       7.608  14.225  25.650  0.00  0.00     0.065 C 
HETATM    7  C   UNL     1       7.830  14.425  23.255  0.00  0.00     0.035 C 
HETATM    8  C   UNL     1       8.982  13.616  23.328  0.00  0.00     0.066 C 
HETATM    9  C   UNL     1       9.352  13.042  24.554  0.00  0.00     0.083 C 
HETATM   10  C   UNL     1       8.722  13.390  25.750  0.00  0.00     0.069 C 
ENDROOT
BRANCH   8  11
HETATM   11  C   UNL     1       9.786  13.300  22.110  0.00  0.00     0.260 C 
HETATM   12  O   UNL     1      10.650  14.134  21.818  0.00  0.00    -0.267 OA
HETATM   13  N   UNL     1       9.592  12.102  21.394  0.00  0.00    -0.318 N 
HETATM   14  C   UNL     1      10.606  11.737  20.404  0.00  0.00     0.159 C 
BRANCH  13  15
HETATM   15  C   UNL     1       8.420  11.284  21.443  0.00  0.00     0.037 A 
HETATM   16  C   UNL     1       7.295  11.582  20.659  0.00  0.00     0.031 A 
HETATM   17  C   UNL     1       6.114  10.836  20.771  0.00  0.00     0.026 A 
HETATM   18  C   UNL     1       6.064   9.747  21.639  0.00  0.00     0.034 A 
HETATM   19 CL   UNL     1       4.608   8.857  21.794  0.00  0.00    -0.084 Cl
HETATM   20  C   UNL     1       7.195   9.389  22.366  0.00  0.00     0.026 A 
HETATM   21  C   UNL     1       8.375  10.148  22.259  0.00  0.00     0.031 A 
ENDBRANCH  13  15
ENDBRANCH   8  11
BRANCH   9  22
HETATM   22  O   UNL     1      10.322  12.078  24.659  0.00  0.00    -0.360 OA
HETATM   23  H   UNL     1      10.055  11.343  24.062  0.00  0.00     0.217 HD
ENDBRANCH   9  22
BRANCH   1  24
HETATM   24  C   UNL     1       4.783  15.808  23.881  0.00  0.00     0.100 C 
BRANCH  24  25
HETATM   25  C   UNL     1       3.820  14.668  23.665  0.00  0.00    -0.052 A 
HETATM   26  C   UNL     1       2.471  14.818  24.021  0.00  0.00     0.014 A 
HETATM   27  C   UNL     1       1.569  13.755  23.890  0.00  0.00    -0.061 A 
HETATM   28  C   UNL     1       0.167  13.881  24.406  0.00  0.00     0.048 C 
HETATM   29  C   UNL     1       2.013  12.544  23.349  0.00  0.00     0.007 A 
HETATM   30  C   UNL     1       3.334  12.402  22.930  0.00  0.00     0.001 A 
HETATM   31  C   UNL     1       4.232  13.459  23.085  0.00  0.00     0.007 A 
ENDBRANCH  24  25
ENDBRANCH   1  24
TORSDOF 5
ENDMDL
MODEL 3
REMARK VINA RESULT:    -8.246      1.543      1.832
REMARK INTER + INTRA:         -12.468
REMARK INTER:                 -10.672
REMARK INTRA:                  -1.796
REMARK UNBOUND:                -2.053
REMARK  5 active torsions:
REMARK  status: ('A' for Active; 'I' for Inactive)
REMARK    1  A    between atoms: C_7  and  C_8 
REMARK    2  A    between atoms: C_8  and  C_9 
REMARK    3  A    between atoms: C_16  and  C_20 
REMARK    4  A    between atoms: C_17  and  O_19 
REMARK       I    between atoms: C_20  and  N_22 
REMARK    5  A    between atoms: N_22  and  C_24 
ROOT
HETATM    1  C   UNL     1       4.202  11.790  23.204  0.00  0.00     0.071 C 
HETATM    2  N   UNL     1       3.909  10.663  23.874  0.00  0.00    -0.178 NA
HETATM    3  N   UNL     1       5.024   9.926  23.779  0.00  0.00    -0.277 N 
HETATM    4  H   UNL     1       5.034   9.013  24.218  0.00  0.00     0.189 HD
HETATM    5  C   UNL     1       5.535  11.761  22.688  0.00  0.00     0.020 C 
HETATM    6  C   UNL     1       6.000  10.489  23.008  0.00  0.00     0.065 C 
HETATM    7  C   UNL     1       6.369  12.621  21.938  0.00  0.00     0.035 C 
HETATM    8  C   UNL     1       7.613  12.138  21.481  0.00  0.00     0.066 C 
HETATM    9  C   UNL     1       7.966  10.800  21.711  0.00  0.00     0.083 C 
HETATM   10  C   UNL     1       7.208   9.970  22.538  0.00  0.00     0.069 C 
ENDROOT
BRANCH   8  11
HETATM   11  C   UNL     1       8.539  13.007  20.697  0.00  0.00     0.260 C 
HETATM   12  O   UNL     1       8.581  12.774  19.485  0.00  0.00    -0.267 OA
HETATM   13  N   UNL     1       9.262  14.050  21.310  0.00  0.00    -0.318 N 
HETATM   14  C   UNL     1       9.908  15.029  20.434  0.00  0.00     0.159 C 
BRANCH  13  15
HETATM   15  C   UNL     1       9.542  14.158  22.708  0.00  0.00     0.037 A 
HETATM   16  C   UNL     1       9.045  15.230  23.465  0.00  0.00     0.031 A 
HETATM   17  C   UNL     1       9.392  15.389  24.814  0.00  0.00     0.026 A 
HETATM   18  C   UNL     1      10.204  14.441  25.435  0.00  0.00     0.034 A 
HETATM   19 CL   UNL     1      10.649  14.655  27.075  0.00  0.00    -0.084 Cl
HETATM   20  C   UNL     1      10.641  13.330  24.720  0.00  0.00     0.026 A 
HETATM   21  C   UNL     1      10.300  13.181  23.363  0.00  0.00     0.031 A 
ENDBRANCH  13  15
ENDBRANCH   8  11
BRANCH   9  22
HETATM   22  O   UNL     1       9.048  10.206  21.114  0.00  0.00    -0.360 OA
HETATM   23  H   UNL     1       9.796  10.280  21.747  0.00  0.00     0.217 HD
ENDBRANCH   9  22
BRANCH   1  24
HETATM   24  C   UNL     1       3.123  12.799  22.949  0.00  0.00     0.100 C 
BRANCH  24  25
HETATM   25  C   UNL     1       3.318  13.949  23.906  0.00  0.00    -0.052 A 
HETATM   26  C   UNL     1       2.678  13.933  25.155  0.00  0.00     0.014 A 
HETATM   27  C   UNL     1       2.791  15.016  26.036  0.00  0.00    -0.061 A 
HETATM   28  C   UNL     1       1.989  15.051  27.301  0.00  0.00     0.048 C 
HETATM   29  C   UNL     1       3.595  16.104  25.681  0.00  0.00     0.007 A 
HETATM   30  C   UNL     1       4.290  16.103  24.474  0.00  0.00     0.001 A 
HETATM   31  C   UNL     1       4.153  15.031  23.592  0.00  0.00     0.007 A 
ENDBRANCH  24  25
ENDBRANCH   1  24
TORSDOF 5
ENDMDL
MODEL 4
REMARK VINA RESULT:    -8.246      0.492      1.032
REMARK INTER + INTRA:         -12.468
REMARK INTER:                 -10.470
REMARK INTRA:                  -1.997
REMARK UNBOUND:                -2.053
REMARK  5 active torsions:
REMARK  status: ('A' for Active; 'I' for Inactive)
REMARK    1  A    between atoms: C_7  and  C_8 
REMARK    2  A    between atoms: C_8  and  C_9 
REMARK    3  A    between atoms: C_16  and  C_20 
REMARK    4  A    between atoms: C_17  and  O_19 
REMARK       I    between atoms: C_20  and  N_22 
REMARK    5  A    between atoms: N_22  and  C_24 
ROOT
HETATM    1  C   UNL     1       2.909  11.765  23.764  0.00  0.00     0.071 C 
HETATM    2  N   UNL     1       2.468  10.923  24.713  0.00  0.00    -0.178 NA
HETATM    3  N   UNL     1       3.269   9.855  24.601  0.00  0.00    -0.277 N 
HETATM    4  H   UNL     1       3.118   9.074  25.228  0.00  0.00     0.189 HD
HETATM    5  C   UNL     1       4.019  11.216  23.050  0.00  0.00     0.020 C 
HETATM    6  C   UNL     1       4.159   9.932  23.567  0.00  0.00     0.065 C 
HETATM    7  C   UNL     1       4.867  11.619  21.994  0.00  0.00     0.035 C 
HETATM    8  C   UNL     1       5.777  10.687  21.456  0.00  0.00     0.066 C 
HETATM    9  C   UNL     1       5.774   9.363  21.921  0.00  0.00     0.083 C 
HETATM   10  C   UNL     1       5.023   8.975  23.031  0.00  0.00     0.069 C 
ENDROOT
BRANCH   8  11
HETATM   11  C   UNL     1       6.706  11.062  20.349  0.00  0.00     0.260 C 
HETATM   12  O   UNL     1       6.509  10.482  19.276  0.00  0.00    -0.267 OA
HETATM   13  N   UNL     1       7.693  12.053  20.523  0.00  0.00    -0.318 N 
HETATM   14  C   UNL     1       8.354  12.566  19.322  0.00  0.00     0.159 C 
BRANCH  13  15
HETATM   15  C   UNL     1       8.209  12.500  21.780  0.00  0.00     0.037 A 
HETATM   16  C   UNL     1       9.124  11.721  22.505  0.00  0.00     0.031 A 
HETATM   17  C   UNL     1       9.563  12.113  23.777  0.00  0.00     0.026 A 
HETATM   18  C   UNL     1       9.125  13.321  24.317  0.00  0.00     0.034 A 
HETATM   19 CL   UNL     1       9.642  13.781  25.884  0.00  0.00    -0.084 Cl
HETATM   20  C   UNL     1       8.280  14.144  23.578  0.00  0.00     0.026 A 
HETATM   21  C   UNL     1       7.833  13.741  22.307  0.00  0.00     0.031 A 
ENDBRANCH  13  15
ENDBRANCH   8  11
BRANCH   9  22
HETATM   22  O   UNL     1       6.469   8.357  21.300  0.00  0.00    -0.360 OA
HETATM   23  H   UNL     1       6.494   7.602  21.928  0.00  0.00     0.217 HD
ENDBRANCH   9  22
BRANCH   1  24
HETATM   24  C   UNL     1       2.138  13.018  23.473  0.00  0.00     0.100 C 
BRANCH  24  25
HETATM   25  C   UNL     1       2.853  14.174  24.126  0.00  0.00    -0.052 A 
HETATM   26  C   UNL     1       2.529  14.541  25.441  0.00  0.00     0.014 A 
HETATM   27  C   UNL     1       3.132  15.649  26.049  0.00  0.00    -0.061 A 
HETATM   28  C   UNL     1       2.675  16.118  27.397  0.00  0.00     0.048 C 
HETATM   29  C   UNL     1       4.108  16.367  25.348  0.00  0.00     0.007 A 
HETATM   30  C   UNL     1       4.487  15.973  24.067  0.00  0.00     0.001 A 
HETATM   31  C   UNL     1       3.865  14.882  23.460  0.00  0.00     0.007 A 
ENDBRANCH  24  25
ENDBRANCH   1  24
TORSDOF 5
ENDMDL
MODEL 5
REMARK VINA RESULT:    -8.099      3.074      4.858
REMARK INTER + INTRA:         -12.282
REMARK INTER:                 -10.495
REMARK INTRA:                  -1.787
REMARK UNBOUND:                -2.053
REMARK  5 active torsions:
REMARK  status: ('A' for Active; 'I' for Inactive)
REMARK    1  A    between atoms: C_7  and  C_8 
REMARK    2  A    between atoms: C_8  and  C_9 
REMARK    3  A    between atoms: C_16  and  C_20 
REMARK    4  A    between atoms: C_17  and  O_19 
REMARK       I    between atoms: C_20  and  N_22 
REMARK    5  A    between atoms: N_22  and  C_24 
ROOT
HETATM    1  C   UNL     1       7.717  14.328  26.611  0.00  0.00     0.071 C 
HETATM    2  N   UNL     1       8.731  15.090  27.054  0.00  0.00    -0.178 NA
HETATM    3  N   UNL     1       9.830  14.418  26.684  0.00  0.00    -0.277 N 
HETATM    4  H   UNL     1      10.734  14.811  26.919  0.00  0.00     0.189 HD
HETATM    5  C   UNL     1       8.193  13.161  25.937  0.00  0.00     0.020 C 
HETATM    6  C   UNL     1       9.575  13.214  26.091  0.00  0.00     0.065 C 
HETATM    7  C   UNL     1       7.625  12.043  25.285  0.00  0.00     0.035 C 
HETATM    8  C   UNL     1       8.469  10.991  24.874  0.00  0.00     0.066 C 
HETATM    9  C   UNL     1       9.836  11.035  25.185  0.00  0.00     0.083 C 
HETATM   10  C   UNL     1      10.431  12.173  25.730  0.00  0.00     0.069 C 
ENDROOT
BRANCH   8  11
HETATM   11  C   UNL     1       7.925   9.793  24.169  0.00  0.00     0.260 C 
HETATM   12  O   UNL     1       7.973   8.737  24.810  0.00  0.00    -0.267 OA
HETATM   13  N   UNL     1       7.350   9.895  22.886  0.00  0.00    -0.318 N 
HETATM   14  C   UNL     1       6.583   8.748  22.398  0.00  0.00     0.159 C 
BRANCH  13  15
HETATM   15  C   UNL     1       7.569  10.962  21.959  0.00  0.00     0.037 A 
HETATM   16  C   UNL     1       8.508  10.839  20.924  0.00  0.00     0.031 A 
HETATM   17  C   UNL     1       8.791  11.914  20.069  0.00  0.00     0.026 A 
HETATM   18  C   UNL     1       8.094  13.112  20.213  0.00  0.00     0.034 A 
HETATM   19 CL   UNL     1       8.464  14.432  19.185  0.00  0.00    -0.084 Cl
HETATM   20  C   UNL     1       7.103  13.225  21.184  0.00  0.00     0.026 A 
HETATM   21  C   UNL     1       6.832  12.148  22.047  0.00  0.00     0.031 A 
ENDBRANCH  13  15
ENDBRANCH   8  11
BRANCH   9  22
HETATM   22  O   UNL     1      10.670   9.959  25.014  0.00  0.00    -0.360 OA
HETATM   23  H   UNL     1      10.863   9.901  24.052  0.00  0.00     0.217 HD
ENDBRANCH   9  22
BRANCH   1  24
HETATM   24  C   UNL     1       6.310  14.679  26.992  0.00  0.00     0.100 C 
BRANCH  24  25
HETATM   25  C   UNL     1       5.532  14.945  25.728  0.00  0.00    -0.052 A 
HETATM   26  C   UNL     1       4.140  14.766  25.715  0.00  0.00     0.014 A 
HETATM   27  C   UNL     1       3.401  14.945  24.539  0.00  0.00    -0.061 A 
HETATM   28  C   UNL     1       1.941  14.612  24.502  0.00  0.00     0.048 C 
HETATM   29  C   UNL     1       4.059  15.356  23.375  0.00  0.00     0.007 A 
HETATM   30  C   UNL     1       5.431  15.601  23.389  0.00  0.00     0.001 A 
HETATM   31  C   UNL     1       6.162  15.399  24.559  0.00  0.00     0.007 A 
ENDBRANCH  24  25
ENDBRANCH   1  24
TORSDOF 5
ENDMDL
MODEL 6
REMARK VINA RESULT:    -7.795      4.423      7.343
REMARK INTER + INTRA:         -11.899
REMARK INTER:                  -9.892
REMARK INTRA:                  -2.007
REMARK UNBOUND:                -2.053
REMARK  5 active torsions:
REMARK  status: ('A' for Active; 'I' for Inactive)
REMARK    1  A    between atoms: C_7  and  C_8 
REMARK    2  A    between atoms: C_8  and  C_9 
REMARK    3  A    between atoms: C_16  and  C_20 
REMARK    4  A    between atoms: C_17  and  O_19 
REMARK       I    between atoms: C_20  and  N_22 
REMARK    5  A    between atoms: N_22  and  C_24 
ROOT
HETATM    1  C   UNL     1       4.115   9.544  23.982  0.00  0.00     0.071 C 
HETATM    2  N   UNL     1       4.583   8.831  22.943  0.00  0.00    -0.178 NA
HETATM    3  N   UNL     1       3.573   8.007  22.630  0.00  0.00    -0.277 N 
HETATM    4  H   UNL     1       3.702   7.362  21.860  0.00  0.00     0.189 HD
HETATM    5  C   UNL     1       2.779   9.164  24.318  0.00  0.00     0.020 C 
HETATM    6  C   UNL     1       2.500   8.096  23.471  0.00  0.00     0.065 C 
HETATM    7  C   UNL     1       1.809   9.545  25.272  0.00  0.00     0.035 C 
HETATM    8  C   UNL     1       0.623   8.789  25.380  0.00  0.00     0.066 C 
HETATM    9  C   UNL     1       0.461   7.636  24.598  0.00  0.00     0.083 C 
HETATM   10  C   UNL     1       1.355   7.306  23.579  0.00  0.00     0.069 C 
ENDROOT
BRANCH   8  11
HETATM   11  C   UNL     1      -0.441   9.154  26.361  0.00  0.00     0.260 C 
HETATM   12  O   UNL     1      -0.588   8.363  27.298  0.00  0.00    -0.267 OA
HETATM   13  N   UNL     1      -1.175  10.351  26.236  0.00  0.00    -0.318 N 
HETATM   14  C   UNL     1      -1.979  10.773  27.384  0.00  0.00     0.159 C 
BRANCH  13  15
HETATM   15  C   UNL     1      -1.319  11.117  25.036  0.00  0.00     0.037 A 
HETATM   16  C   UNL     1      -2.455  10.982  24.224  0.00  0.00     0.031 A 
HETATM   17  C   UNL     1      -2.559  11.663  23.003  0.00  0.00     0.026 A 
HETATM   18  C   UNL     1      -1.542  12.529  22.606  0.00  0.00     0.034 A 
HETATM   19 CL   UNL     1      -1.660  13.336  21.099  0.00  0.00    -0.084 Cl
HETATM   20  C   UNL     1      -0.445  12.735  23.437  0.00  0.00     0.026 A 
HETATM   21  C   UNL     1      -0.339  12.041  24.656  0.00  0.00     0.031 A 
ENDBRANCH  13  15
ENDBRANCH   8  11
BRANCH   9  22
HETATM   22  O   UNL     1      -0.555   6.738  24.804  0.00  0.00    -0.360 OA
HETATM   23  H   UNL     1      -0.314   5.921  24.312  0.00  0.00     0.217 HD
ENDBRANCH   9  22
BRANCH   1  24
HETATM   24  C   UNL     1       5.039  10.466  24.719  0.00  0.00     0.100 C 
BRANCH  24  25
HETATM   25  C   UNL     1       4.623  11.885  24.424  0.00  0.00    -0.052 A 
HETATM   26  C   UNL     1       3.800  12.573  25.329  0.00  0.00     0.014 A 
HETATM   27  C   UNL     1       3.348  13.868  25.050  0.00  0.00    -0.061 A 
HETATM   28  C   UNL     1       2.356  14.537  25.953  0.00  0.00     0.048 C 
HETATM   29  C   UNL     1       3.765  14.499  23.873  0.00  0.00     0.007 A 
HETATM   30  C   UNL     1       4.635  13.853  22.998  0.00  0.00     0.001 A 
HETATM   31  C   UNL     1       5.063  12.554  23.272  0.00  0.00     0.007 A 
ENDBRANCH  24  25
ENDBRANCH   1  24
TORSDOF 5
ENDMDL
MODEL 7
REMARK VINA RESULT:    -7.735      2.578      5.124
REMARK INTER + INTRA:         -11.823
REMARK INTER:                 -10.128
REMARK INTRA:                  -1.695
REMARK UNBOUND:                -2.053
REMARK  5 active torsions:
REMARK  status: ('A' for Active; 'I' for Inactive)
REMARK    1  A    between atoms: C_7  and  C_8 
REMARK    2  A    between atoms: C_8  and  C_9 
REMARK    3  A    between atoms: C_16  and  C_20 
REMARK    4  A    between atoms: C_17  and  O_19 
REMARK       I    between atoms: C_20  and  N_22 
REMARK    5  A    between atoms: N_22  and  C_24 
ROOT
HETATM    1  C   UNL     1       8.390  14.395  22.495  0.00  0.00     0.071 C 
HETATM    2  N   UNL     1       9.485  15.143  22.711  0.00  0.00    -0.178 NA
HETATM    3  N   UNL     1      10.377  14.278  23.215  0.00  0.00    -0.277 N 
HETATM    4  H   UNL     1      11.296  14.627  23.460  0.00  0.00     0.189 HD
HETATM    5  C   UNL     1       8.606  13.030  22.860  0.00  0.00     0.020 C 
HETATM    6  C   UNL     1       9.884  13.020  23.411  0.00  0.00     0.065 C 
HETATM    7  C   UNL     1       7.859  11.831  22.856  0.00  0.00     0.035 C 
HETATM    8  C   UNL     1       8.404  10.684  23.469  0.00  0.00     0.066 C 
HETATM    9  C   UNL     1       9.636  10.771  24.135  0.00  0.00     0.083 C 
HETATM   10  C   UNL     1      10.435  11.913  24.058  0.00  0.00     0.069 C 
ENDROOT
BRANCH   8  11
HETATM   11  C   UNL     1       7.665   9.387  23.482  0.00  0.00     0.260 C 
HETATM   12  O   UNL     1       8.349   8.388  23.239  0.00  0.00    -0.267 OA
HETATM   13  N   UNL     1       6.295   9.328  23.807  0.00  0.00    -0.318 N 
HETATM   14  C   UNL     1       5.725   8.008  24.085  0.00  0.00     0.159 C 
BRANCH  13  15
HETATM   15  C   UNL     1       5.377  10.423  23.750  0.00  0.00     0.037 A 
HETATM   16  C   UNL     1       4.960  11.080  24.917  0.00  0.00     0.031 A 
HETATM   17  C   UNL     1       3.993  12.093  24.875  0.00  0.00     0.026 A 
HETATM   18  C   UNL     1       3.468  12.496  23.647  0.00  0.00     0.034 A 
HETATM   19 CL   UNL     1       2.265  13.715  23.603  0.00  0.00    -0.084 Cl
HETATM   20  C   UNL     1       3.929  11.910  22.472  0.00  0.00     0.026 A 
HETATM   21  C   UNL     1       4.891  10.885  22.522  0.00  0.00     0.031 A 
ENDBRANCH  13  15
ENDBRANCH   8  11
BRANCH   9  22
HETATM   22  O   UNL     1      10.119   9.767  24.934  0.00  0.00    -0.360 OA
HETATM   23  H   UNL     1      10.813  10.168  25.503  0.00  0.00     0.217 HD
ENDBRANCH   9  22
BRANCH   1  24
HETATM   24  C   UNL     1       7.111  15.061  22.085  0.00  0.00     0.100 C 
BRANCH  24  25
HETATM   25  C   UNL     1       6.279  15.285  23.323  0.00  0.00    -0.052 A 
HETATM   26  C   UNL     1       6.760  14.867  24.573  0.00  0.00     0.014 A 
HETATM   27  C   UNL     1       5.982  15.006  25.728  0.00  0.00    -0.061 A 
HETATM   28  C   UNL     1       6.446  14.427  27.030  0.00  0.00     0.048 C 
HETATM   29  C   UNL     1       4.727  15.616  25.637  0.00  0.00     0.007 A 
HETATM   30  C   UNL     1       4.263  16.096  24.414  0.00  0.00     0.001 A 
HETATM   31  C   UNL     1       5.035  15.933  23.264  0.00  0.00     0.007 A 
ENDBRANCH  24  25
ENDBRANCH   1  24
TORSDOF 5
ENDMDL
MODEL 8
REMARK VINA RESULT:    -7.653      2.194      3.776
REMARK INTER + INTRA:         -11.719
REMARK INTER:                  -9.853
REMARK INTRA:                  -1.866
REMARK UNBOUND:                -2.053
REMARK  5 active torsions:
REMARK  status: ('A' for Active; 'I' for Inactive)
REMARK    1  A    between atoms: C_7  and  C_8 
REMARK    2  A    between atoms: C_8  and  C_9 
REMARK    3  A    between atoms: C_16  and  C_20 
REMARK    4  A    between atoms: C_17  and  O_19 
REMARK       I    between atoms: C_20  and  N_22 
REMARK    5  A    between atoms: N_22  and  C_24 
ROOT
HETATM    1  C   UNL     1       4.535  10.167  23.567  0.00  0.00     0.071 C 
HETATM    2  N   UNL     1       3.922   9.312  22.731  0.00  0.00    -0.178 NA
HETATM    3  N   UNL     1       4.635   9.394  21.599  0.00  0.00    -0.277 N 
HETATM    4  H   UNL     1       4.350   8.825  20.811  0.00  0.00     0.189 HD
HETATM    5  C   UNL     1       5.664  10.787  22.948  0.00  0.00     0.020 C 
HETATM    6  C   UNL     1       5.636  10.323  21.636  0.00  0.00     0.065 C 
HETATM    7  C   UNL     1       6.654  11.727  23.314  0.00  0.00     0.035 C 
HETATM    8  C   UNL     1       7.532  12.214  22.325  0.00  0.00     0.066 C 
HETATM    9  C   UNL     1       7.364  11.819  20.989  0.00  0.00     0.083 C 
HETATM   10  C   UNL     1       6.466  10.814  20.627  0.00  0.00     0.069 C 
ENDROOT
BRANCH   8  11
HETATM   11  C   UNL     1       8.605  13.198  22.658  0.00  0.00     0.260 C 
HETATM   12  O   UNL     1       9.753  12.841  22.377  0.00  0.00    -0.267 OA
HETATM   13  N   UNL     1       8.298  14.461  23.202  0.00  0.00    -0.318 N 
HETATM   14  C   UNL     1       9.363  15.464  23.221  0.00  0.00     0.159 C 
BRANCH  13  15
HETATM   15  C   UNL     1       7.081  14.806  23.870  0.00  0.00     0.037 A 
HETATM   16  C   UNL     1       6.000  15.358  23.165  0.00  0.00     0.031 A 
HETATM   17  C   UNL     1       4.841  15.781  23.828  0.00  0.00     0.026 A 
HETATM   18  C   UNL     1       4.732  15.608  25.207  0.00  0.00     0.034 A 
HETATM   19 CL   UNL     1       3.324  16.154  26.018  0.00  0.00    -0.084 Cl
HETATM   20  C   UNL     1       5.761  14.990  25.911  0.00  0.00     0.026 A 
HETATM   21  C   UNL     1       6.928  14.578  25.242  0.00  0.00     0.031 A 
ENDBRANCH  13  15
ENDBRANCH   8  11
BRANCH   9  22
HETATM   22  O   UNL     1       8.032  12.413  19.950  0.00  0.00    -0.360 OA
HETATM   23  H   UNL     1       8.272  11.697  19.322  0.00  0.00     0.217 HD
ENDBRANCH   9  22
BRANCH   1  24
HETATM   24  C   UNL     1       3.912  10.473  24.896  0.00  0.00     0.100 C 
BRANCH  24  25
HETATM   25  C   UNL     1       2.581  11.137  24.650  0.00  0.00    -0.052 A 
HETATM   26  C   UNL     1       2.537  12.461  24.186  0.00  0.00     0.014 A 
HETATM   27  C   UNL     1       1.315  13.123  24.009  0.00  0.00    -0.061 A 
HETATM   28  C   UNL     1       1.284  14.578  23.652  0.00  0.00     0.048 C 
HETATM   29  C   UNL     1       0.123  12.433  24.253  0.00  0.00     0.007 A 
HETATM   30  C   UNL     1       0.150  11.098  24.650  0.00  0.00     0.001 A 
HETATM   31  C   UNL     1       1.372  10.454  24.846  0.00  0.00     0.007 A 
ENDBRANCH  24  25
ENDBRANCH   1  24
TORSDOF 5
ENDMDL
MODEL 9
REMARK VINA RESULT:    -7.440      2.976      4.701
REMARK INTER + INTRA:         -11.450
REMARK INTER:                  -9.397
REMARK INTRA:                  -2.053
REMARK UNBOUND:                -2.053
REMARK  5 active torsions:
REMARK  status: ('A' for Active; 'I' for Inactive)
REMARK    1  A    between atoms: C_7  and  C_8 
REMARK    2  A    between atoms: C_8  and  C_9 
REMARK    3  A    between atoms: C_16  and  C_20 
REMARK    4  A    between atoms: C_17  and  O_19 
REMARK       I    between atoms: C_20  and  N_22 
REMARK    5  A    between atoms: N_22  and  C_24 
ROOT
HETATM    1  C   UNL     1       3.186  15.253  24.486  0.00  0.00     0.071 C 
HETATM    2  N   UNL     1       3.092  15.665  25.762  0.00  0.00    -0.178 NA
HETATM    3  N   UNL     1       4.362  15.695  26.189  0.00  0.00    -0.277 N 
HETATM    4  H   UNL     1       4.539  15.981  27.145  0.00  0.00     0.189 HD
HETATM    5  C   UNL     1       4.545  15.034  24.104  0.00  0.00     0.020 C 
HETATM    6  C   UNL     1       5.270  15.245  25.273  0.00  0.00     0.065 C 
HETATM    7  C   UNL     1       5.236  14.620  22.943  0.00  0.00     0.035 C 
HETATM    8  C   UNL     1       6.621  14.369  23.025  0.00  0.00     0.066 C 
HETATM    9  C   UNL     1       7.272  14.459  24.265  0.00  0.00     0.083 C 
HETATM   10  C   UNL     1       6.632  14.968  25.396  0.00  0.00     0.069 C 
ENDROOT
BRANCH   8  11
HETATM   11  C   UNL     1       7.403  13.942  21.827  0.00  0.00     0.260 C 
HETATM   12  O   UNL     1       7.910  14.860  21.174  0.00  0.00    -0.267 OA
HETATM   13  N   UNL     1       7.583  12.579  21.516  0.00  0.00    -0.318 N 
HETATM   14  C   UNL     1       8.595  12.245  20.512  0.00  0.00     0.159 C 
BRANCH  13  15
HETATM   15  C   UNL     1       6.766  11.503  21.986  0.00  0.00     0.037 A 
HETATM   16  C   UNL     1       5.539  11.206  21.375  0.00  0.00     0.031 A 
HETATM   17  C   UNL     1       4.694  10.212  21.888  0.00  0.00     0.026 A 
HETATM   18  C   UNL     1       5.097   9.468  22.996  0.00  0.00     0.034 A 
HETATM   19 CL   UNL     1       4.048   8.275  23.637  0.00  0.00    -0.084 Cl
HETATM   20  C   UNL     1       6.345   9.697  23.567  0.00  0.00     0.026 A 
HETATM   21  C   UNL     1       7.184  10.703  23.055  0.00  0.00     0.031 A 
ENDBRANCH  13  15
ENDBRANCH   8  11
BRANCH   9  22
HETATM   22  O   UNL     1       8.556  14.020  24.461  0.00  0.00    -0.360 OA
HETATM   23  H   UNL     1       8.780  13.450  23.693  0.00  0.00     0.217 HD
ENDBRANCH   9  22
BRANCH   1  24
HETATM   24  C   UNL     1       1.937  14.935  23.720  0.00  0.00     0.100 C 
BRANCH  24  25
HETATM   25  C   UNL     1       1.508  13.534  24.080  0.00  0.00    -0.052 A 
HETATM   26  C   UNL     1       0.170  13.280  24.419  0.00  0.00     0.014 A 
HETATM   27  C   UNL     1      -0.242  12.002  24.818  0.00  0.00    -0.061 A 
HETATM   28  C   UNL     1      -1.637  11.775  25.314  0.00  0.00     0.048 C 
HETATM   29  C   UNL     1       0.688  10.957  24.829  0.00  0.00     0.007 A 
HETATM   30  C   UNL     1       2.005  11.181  24.432  0.00  0.00     0.001 A 
HETATM   31  C   UNL     1       2.412  12.461  24.058  0.00  0.00     0.007 A 
ENDBRANCH  24  25
ENDBRANCH   1  24
TORSDOF 5
ENDMDL
