MODEL 1
REMARK VINA RESULT:    -6.461      0.000      0.000
REMARK INTER + INTRA:          -8.547
REMARK INTER:                  -7.590
REMARK INTRA:                  -0.958
REMARK UNBOUND:                -0.954
REMARK  4 active torsions:
REMARK  status: ('A' for Active; 'I' for Inactive)
REMARK    1  A    between atoms: O_1  and  C_2 
REMARK    2  A    between atoms: C_5  and  C_6 
REMARK    3  A    between atoms: N_12  and  C_13 
REMARK    4  A    between atoms: C_20  and  O_21 
ROOT
HETATM    1  C   UNL     1       4.273  12.241  21.474  0.00  0.00     0.170 A 
HETATM    2  N   UNL     1       4.273  11.478  20.408  0.00  0.00    -0.153 NA
HETATM    3  N   UNL     1       5.558  11.425  20.005  0.00  0.00    -0.251 N 
HETATM    4  H   UNL     1       5.861  10.817  19.245  0.00  0.00     0.191 HD
HETATM    5  C   UNL     1       6.379  12.125  20.871  0.00  0.00     0.201 A 
HETATM    6  S   UNL     1       8.032  12.050  20.708  0.00  0.00    -0.038 SA
HETATM    7  N   UNL     1       5.533  12.717  21.808  0.00  0.00    -0.266 N 
ENDROOT
BRANCH   1   8
HETATM    8  C   UNL     1       2.983  12.471  22.176  0.00  0.00     0.045 C 
HETATM    9  C   UNL     1       2.071  13.308  21.497  0.00  0.00     0.021 C 
HETATM   10  C   UNL     1       0.777  13.510  21.977  0.00  0.00     0.037 C 
HETATM   11  C   UNL     1       0.378  12.860  23.134  0.00  0.00     0.068 C 
HETATM   12  C   UNL     1       1.284  12.097  23.865  0.00  0.00     0.074 C 
HETATM   13  C   UNL     1       2.603  11.956  23.418  0.00  0.00     0.082 C 
BRANCH  11  14
HETATM   14  O   UNL     1      -0.904  12.952  23.590  0.00  0.00    -0.361 OA
HETATM   15  H   UNL     1      -1.359  12.112  23.412  0.00  0.00     0.217 HD
ENDBRANCH  11  14
BRANCH  13  16
HETATM   16  O   UNL     1       3.447  11.315  24.280  0.00  0.00    -0.360 OA
HETATM   17  H   UNL     1       2.975  11.129  25.109  0.00  0.00     0.217 HD
ENDBRANCH  13  16
ENDBRANCH   1   8
BRANCH   7  18
HETATM   18  C   UNL     1       5.942  13.586  22.866  0.00  0.00     0.082 A 
HETATM   19  C   UNL     1       5.724  14.974  22.763  0.00  0.00     0.033 A 
HETATM   20  C   UNL     1       5.978  15.841  23.832  0.00  0.00     0.002 A 
HETATM   21  C   UNL     1       6.423  15.334  25.047  0.00  0.00     0.003 A 
HETATM   22  C   UNL     1       6.691  13.974  25.159  0.00  0.00     0.044 A 
HETATM   23  C   UNL     1       6.495  13.127  24.065  0.00  0.00     0.143 A 
HETATM   24  F   UNL     1       6.886  11.850  24.192  0.00  0.00    -0.204 F 
ENDBRANCH   7  18
TORSDOF 4
ENDMDL
MODEL 2
REMARK VINA RESULT:    -6.173      3.378      4.361
REMARK INTER + INTRA:          -8.209
REMARK INTER:                  -7.695
REMARK INTRA:                  -0.514
REMARK UNBOUND:                -0.954
REMARK  4 active torsions:
REMARK  status: ('A' for Active; 'I' for Inactive)
REMARK    1  A    between atoms: O_1  and  C_2 
REMARK    2  A    between atoms: C_5  and  C_6 
REMARK    3  A    between atoms: N_12  and  C_13 
REMARK    4  A    between atoms: C_20  and  O_21 
ROOT
HETATM    1  C   UNL     1       7.808  12.602  21.315  0.00  0.00     0.170 A 
HETATM    2  N   UNL     1       8.807  12.541  20.468  0.00  0.00    -0.153 NA
HETATM    3  N   UNL     1       9.371  13.765  20.490  0.00  0.00    -0.251 N 
HETATM    4  H   UNL     1      10.235  13.972  19.991  0.00  0.00     0.191 HD
HETATM    5  C   UNL     1       8.741  14.585  21.410  0.00  0.00     0.201 A 
HETATM    6  S   UNL     1       9.369  16.082  21.772  0.00  0.00    -0.038 SA
HETATM    7  N   UNL     1       7.671  13.846  21.914  0.00  0.00    -0.266 N 
ENDROOT
BRANCH   1   8
HETATM    8  C   UNL     1       6.996  11.377  21.536  0.00  0.00     0.045 C 
HETATM    9  C   UNL     1       6.803  11.020  22.888  0.00  0.00     0.021 C 
HETATM   10  C   UNL     1       5.961   9.967  23.247  0.00  0.00     0.037 C 
HETATM   11  C   UNL     1       5.290   9.273  22.255  0.00  0.00     0.068 C 
HETATM   12  C   UNL     1       5.526   9.552  20.912  0.00  0.00     0.074 C 
HETATM   13  C   UNL     1       6.428  10.561  20.554  0.00  0.00     0.082 C 
BRANCH  11  14
HETATM   14  O   UNL     1       4.385   8.300  22.561  0.00  0.00    -0.361 OA
HETATM   15  H   UNL     1       4.274   7.721  21.789  0.00  0.00     0.217 HD
ENDBRANCH  11  14
BRANCH  13  16
HETATM   16  O   UNL     1       6.702  10.655  19.219  0.00  0.00    -0.360 OA
HETATM   17  H   UNL     1       7.432  11.282  19.087  0.00  0.00     0.217 HD
ENDBRANCH  13  16
ENDBRANCH   1   8
BRANCH   7  18
HETATM   18  C   UNL     1       6.706  14.316  22.856  0.00  0.00     0.082 A 
HETATM   19  C   UNL     1       7.128  14.926  24.054  0.00  0.00     0.033 A 
HETATM   20  C   UNL     1       6.222  15.527  24.935  0.00  0.00     0.002 A 
HETATM   21  C   UNL     1       4.869  15.565  24.621  0.00  0.00     0.003 A 
HETATM   22  C   UNL     1       4.421  14.928  23.467  0.00  0.00     0.044 A 
HETATM   23  C   UNL     1       5.327  14.276  22.628  0.00  0.00     0.143 A 
HETATM   24  F   UNL     1       4.826  13.577  21.599  0.00  0.00    -0.204 F 
ENDBRANCH   7  18
TORSDOF 4
ENDMDL
MODEL 3
REMARK VINA RESULT:    -6.157      2.586      4.056
REMARK INTER + INTRA:          -8.191
REMARK INTER:                  -7.310
REMARK INTRA:                  -0.881
REMARK UNBOUND:                -0.954
REMARK  4 active torsions:
REMARK  status: ('A' for Active; 'I' for Inactive)
REMARK    1  A    between atoms: O_1  and  C_2 
REMARK    2  A    between atoms: C_5  and  C_6 
REMARK    3  A    between atoms: N_12  and  C_13 
REMARK    4  A    between atoms: C_20  and  O_21 
ROOT
HETATM    1  C   UNL     1       2.334  14.045  22.895  0.00  0.00     0.170 A 
HETATM    2  N   UNL     1       2.379  15.253  23.404  0.00  0.00    -0.153 NA
HETATM    3  N   UNL     1       3.688  15.515  23.589  0.00  0.00    -0.251 N 
HETATM    4  H   UNL     1       4.019  16.432  23.887  0.00  0.00     0.191 HD
HETATM    5  C   UNL     1       4.472  14.470  23.135  0.00  0.00     0.201 A 
HETATM    6  S   UNL     1       6.127  14.626  23.068  0.00  0.00    -0.038 SA
HETATM    7  N   UNL     1       3.585  13.471  22.733  0.00  0.00    -0.266 N 
ENDROOT
BRANCH   1   8
HETATM    8  C   UNL     1       1.005  13.477  22.549  0.00  0.00     0.045 C 
HETATM    9  C   UNL     1       0.162  13.205  23.649  0.00  0.00     0.021 C 
HETATM   10  C   UNL     1      -1.157  12.788  23.467  0.00  0.00     0.037 C 
HETATM   11  C   UNL     1      -1.650  12.656  22.180  0.00  0.00     0.068 C 
HETATM   12  C   UNL     1      -0.816  12.839  21.080  0.00  0.00     0.074 C 
HETATM   13  C   UNL     1       0.526  13.187  21.269  0.00  0.00     0.082 C 
BRANCH  11  14
HETATM   14  O   UNL     1      -2.958  12.343  21.953  0.00  0.00    -0.361 OA
HETATM   15  H   UNL     1      -3.280  11.795  22.687  0.00  0.00     0.217 HD
ENDBRANCH  11  14
BRANCH  13  16
HETATM   16  O   UNL     1       1.293  13.194  20.138  0.00  0.00    -0.360 OA
HETATM   17  H   UNL     1       1.108  14.005  19.634  0.00  0.00     0.217 HD
ENDBRANCH  13  16
ENDBRANCH   1   8
BRANCH   7  18
HETATM   18  C   UNL     1       3.953  12.180  22.245  0.00  0.00     0.082 A 
HETATM   19  C   UNL     1       4.528  12.047  20.965  0.00  0.00     0.033 A 
HETATM   20  C   UNL     1       5.032  10.824  20.507  0.00  0.00     0.002 A 
HETATM   21  C   UNL     1       5.006   9.708  21.335  0.00  0.00     0.003 A 
HETATM   22  C   UNL     1       4.401   9.802  22.584  0.00  0.00     0.044 A 
HETATM   23  C   UNL     1       3.843  11.011  23.006  0.00  0.00     0.143 A 
HETATM   24  F   UNL     1       3.166  11.012  24.163  0.00  0.00    -0.204 F 
ENDBRANCH   7  18
TORSDOF 4
ENDMDL
MODEL 4
REMARK VINA RESULT:    -6.053      3.071      4.266
REMARK INTER + INTRA:          -8.069
REMARK INTER:                  -7.150
REMARK INTRA:                  -0.919
REMARK UNBOUND:                -0.954
REMARK  4 active torsions:
REMARK  status: ('A' for Active; 'I' for Inactive)
REMARK    1  A    between atoms: O_1  and  C_2 
REMARK    2  A    between atoms: C_5  and  C_6 
REMARK    3  A    between atoms: N_12  and  C_13 
REMARK    4  A    between atoms: C_20  and  O_21 
ROOT
HETATM    1  C   UNL     1       3.672  12.226  22.693  0.00  0.00     0.170 A 
HETATM    2  N   UNL     1       2.409  11.902  22.834  0.00  0.00    -0.153 NA
HETATM    3  N   UNL     1       1.942  12.699  23.814  0.00  0.00    -0.251 N 
HETATM    4  H   UNL     1       0.954  12.725  24.066  0.00  0.00     0.191 HD
HETATM    5  C   UNL     1       2.921  13.573  24.252  0.00  0.00     0.201 A 
HETATM    6  S   UNL     1       2.545  14.794  25.318  0.00  0.00    -0.038 SA
HETATM    7  N   UNL     1       4.081  13.227  23.561  0.00  0.00    -0.266 N 
ENDROOT
BRANCH   1   8
HETATM    8  C   UNL     1       4.465  11.527  21.648  0.00  0.00     0.045 C 
HETATM    9  C   UNL     1       4.150  11.880  20.318  0.00  0.00     0.021 C 
HETATM   10  C   UNL     1       4.897  11.397  19.243  0.00  0.00     0.037 C 
HETATM   11  C   UNL     1       5.980  10.571  19.492  0.00  0.00     0.068 C 
HETATM   12  C   UNL     1       6.261  10.144  20.787  0.00  0.00     0.074 C 
HETATM   13  C   UNL     1       5.464  10.572  21.855  0.00  0.00     0.082 C 
BRANCH  11  14
HETATM   14  O   UNL     1       6.796  10.152  18.483  0.00  0.00    -0.361 OA
HETATM   15  H   UNL     1       6.757   9.183  18.432  0.00  0.00     0.217 HD
ENDBRANCH  11  14
BRANCH  13  16
HETATM   16  O   UNL     1       5.730   9.980  23.057  0.00  0.00    -0.360 OA
HETATM   17  H   UNL     1       5.069   9.288  23.224  0.00  0.00     0.217 HD
ENDBRANCH  13  16
ENDBRANCH   1   8
BRANCH   7  18
HETATM   18  C   UNL     1       5.365  13.829  23.737  0.00  0.00     0.082 A 
HETATM   19  C   UNL     1       5.789  14.853  22.867  0.00  0.00     0.033 A 
HETATM   20  C   UNL     1       6.973  15.566  23.088  0.00  0.00     0.002 A 
HETATM   21  C   UNL     1       7.747  15.295  24.210  0.00  0.00     0.003 A 
HETATM   22  C   UNL     1       7.376  14.256  25.058  0.00  0.00     0.044 A 
HETATM   23  C   UNL     1       6.226  13.509  24.792  0.00  0.00     0.143 A 
HETATM   24  F   UNL     1       5.984  12.445  25.571  0.00  0.00    -0.204 F 
ENDBRANCH   7  18
TORSDOF 4
ENDMDL
MODEL 5
REMARK VINA RESULT:    -6.052      3.373      4.154
REMARK INTER + INTRA:          -8.067
REMARK INTER:                  -7.112
REMARK INTRA:                  -0.955
REMARK UNBOUND:                -0.954
REMARK  4 active torsions:
REMARK  status: ('A' for Active; 'I' for Inactive)
REMARK    1  A    between atoms: O_1  and  C_2 
REMARK    2  A    between atoms: C_5  and  C_6 
REMARK    3  A    between atoms: N_12  and  C_13 
REMARK    4  A    between atoms: C_20  and  O_21 
ROOT
HETATM    1  C   UNL     1       7.479  12.402  22.913  0.00  0.00     0.170 A 
HETATM    2  N   UNL     1       8.747  12.072  22.874  0.00  0.00    -0.153 NA
HETATM    3  N   UNL     1       9.369  12.936  23.700  0.00  0.00    -0.251 N 
HETATM    4  H   UNL     1      10.357  12.846  23.933  0.00  0.00     0.191 HD
HETATM    5  C   UNL     1       8.459  13.784  24.305  0.00  0.00     0.201 A 
HETATM    6  S   UNL     1       8.945  14.814  25.518  0.00  0.00    -0.038 SA
HETATM    7  N   UNL     1       7.219  13.480  23.746  0.00  0.00    -0.266 N 
ENDROOT
BRANCH   1   8
HETATM    8  C   UNL     1       6.518  11.599  22.113  0.00  0.00     0.045 C 
HETATM    9  C   UNL     1       6.180  12.144  20.855  0.00  0.00     0.021 C 
HETATM   10  C   UNL     1       5.387  11.440  19.948  0.00  0.00     0.037 C 
HETATM   11  C   UNL     1       4.941  10.173  20.286  0.00  0.00     0.068 C 
HETATM   12  C   UNL     1       5.193   9.647  21.550  0.00  0.00     0.074 C 
HETATM   13  C   UNL     1       5.926  10.388  22.484  0.00  0.00     0.082 C 
BRANCH  11  14
HETATM   14  O   UNL     1       4.245   9.408  19.397  0.00  0.00    -0.361 OA
HETATM   15  H   UNL     1       4.136   9.909  18.572  0.00  0.00     0.217 HD
ENDBRANCH  11  14
BRANCH  13  16
HETATM   16  O   UNL     1       5.988   9.851  23.739  0.00  0.00    -0.360 OA
HETATM   17  H   UNL     1       6.898   9.560  23.916  0.00  0.00     0.217 HD
ENDBRANCH  13  16
ENDBRANCH   1   8
BRANCH   7  18
HETATM   18  C   UNL     1       5.989  14.148  24.033  0.00  0.00     0.082 A 
HETATM   19  C   UNL     1       5.762  15.449  23.541  0.00  0.00     0.033 A 
HETATM   20  C   UNL     1       4.521  16.082  23.678  0.00  0.00     0.002 A 
HETATM   21  C   UNL     1       3.462  15.414  24.280  0.00  0.00     0.003 A 
HETATM   22  C   UNL     1       3.674  14.148  24.817  0.00  0.00     0.044 A 
HETATM   23  C   UNL     1       4.935  13.551  24.732  0.00  0.00     0.143 A 
HETATM   24  F   UNL     1       5.114  12.387  25.372  0.00  0.00    -0.204 F 
ENDBRANCH   7  18
TORSDOF 4
ENDMDL
MODEL 6
REMARK VINA RESULT:    -6.015      3.557      4.415
REMARK INTER + INTRA:          -8.023
REMARK INTER:                  -7.192
REMARK INTRA:                  -0.831
REMARK UNBOUND:                -0.954
REMARK  4 active torsions:
REMARK  status: ('A' for Active; 'I' for Inactive)
REMARK    1  A    between atoms: O_1  and  C_2 
REMARK    2  A    between atoms: C_5  and  C_6 
REMARK    3  A    between atoms: N_12  and  C_13 
REMARK    4  A    between atoms: C_20  and  O_21 
ROOT
HETATM    1  C   UNL     1       7.536  12.351  23.002  0.00  0.00     0.170 A 
HETATM    2  N   UNL     1       8.786  11.965  23.087  0.00  0.00    -0.153 NA
HETATM    3  N   UNL     1       9.371  12.828  23.941  0.00  0.00    -0.251 N 
HETATM    4  H   UNL     1      10.329  12.704  24.265  0.00  0.00     0.191 HD
HETATM    5  C   UNL     1       8.451  13.734  24.438  0.00  0.00     0.201 A 
HETATM    6  S   UNL     1       8.874  14.780  25.659  0.00  0.00    -0.038 SA
HETATM    7  N   UNL     1       7.252  13.465  23.777  0.00  0.00    -0.266 N 
ENDROOT
BRANCH   1   8
HETATM    8  C   UNL     1       6.614  11.564  22.142  0.00  0.00     0.045 C 
HETATM    9  C   UNL     1       6.399  12.094  20.850  0.00  0.00     0.021 C 
HETATM   10  C   UNL     1       5.657  11.397  19.895  0.00  0.00     0.037 C 
HETATM   11  C   UNL     1       5.140  10.155  20.219  0.00  0.00     0.068 C 
HETATM   12  C   UNL     1       5.268   9.649  21.510  0.00  0.00     0.074 C 
HETATM   13  C   UNL     1       5.950  10.384  22.486  0.00  0.00     0.082 C 
BRANCH  11  14
HETATM   14  O   UNL     1       4.490   9.396  19.291  0.00  0.00    -0.361 OA
HETATM   15  H   UNL     1       3.716   9.887  18.971  0.00  0.00     0.217 HD
ENDBRANCH  11  14
BRANCH  13  16
HETATM   16  O   UNL     1       5.891   9.872  23.752  0.00  0.00    -0.360 OA
HETATM   17  H   UNL     1       5.718   8.917  23.701  0.00  0.00     0.217 HD
ENDBRANCH  13  16
ENDBRANCH   1   8
BRANCH   7  18
HETATM   18  C   UNL     1       6.034  14.195  23.934  0.00  0.00     0.082 A 
HETATM   19  C   UNL     1       4.941  13.608  24.602  0.00  0.00     0.033 A 
HETATM   20  C   UNL     1       3.783  14.336  24.901  0.00  0.00     0.002 A 
HETATM   21  C   UNL     1       3.705  15.684  24.571  0.00  0.00     0.003 A 
HETATM   22  C   UNL     1       4.751  16.274  23.869  0.00  0.00     0.044 A 
HETATM   23  C   UNL     1       5.875  15.521  23.519  0.00  0.00     0.143 A 
HETATM   24  F   UNL     1       6.794  16.107  22.738  0.00  0.00    -0.204 F 
ENDBRANCH   7  18
TORSDOF 4
ENDMDL
MODEL 7
REMARK VINA RESULT:    -5.952      3.976      5.595
REMARK INTER + INTRA:          -7.949
REMARK INTER:                  -6.997
REMARK INTRA:                  -0.953
REMARK UNBOUND:                -0.954
REMARK  4 active torsions:
REMARK  status: ('A' for Active; 'I' for Inactive)
REMARK    1  A    between atoms: O_1  and  C_2 
REMARK    2  A    between atoms: C_5  and  C_6 
REMARK    3  A    between atoms: N_12  and  C_13 
REMARK    4  A    between atoms: C_20  and  O_21 
ROOT
HETATM    1  C   UNL     1       6.468  10.963  20.097  0.00  0.00     0.170 A 
HETATM    2  N   UNL     1       6.491  10.978  18.786  0.00  0.00    -0.153 NA
HETATM    3  N   UNL     1       5.956   9.802  18.404  0.00  0.00    -0.251 N 
HETATM    4  H   UNL     1       5.764   9.588  17.426  0.00  0.00     0.191 HD
HETATM    5  C   UNL     1       5.543   9.066  19.500  0.00  0.00     0.201 A 
HETATM    6  S   UNL     1       4.670   7.665  19.293  0.00  0.00    -0.038 SA
HETATM    7  N   UNL     1       5.932   9.797  20.622  0.00  0.00    -0.266 N 
ENDROOT
BRANCH   1   8
HETATM    8  C   UNL     1       6.975  12.156  20.824  0.00  0.00     0.045 C 
HETATM    9  C   UNL     1       6.001  12.876  21.549  0.00  0.00     0.021 C 
HETATM   10  C   UNL     1       6.354  13.943  22.377  0.00  0.00     0.037 C 
HETATM   11  C   UNL     1       7.690  14.285  22.501  0.00  0.00     0.068 C 
HETATM   12  C   UNL     1       8.659  13.644  21.735  0.00  0.00     0.074 C 
HETATM   13  C   UNL     1       8.292  12.623  20.851  0.00  0.00     0.082 C 
BRANCH  11  14
HETATM   14  O   UNL     1       8.093  15.257  23.369  0.00  0.00    -0.361 OA
HETATM   15  H   UNL     1       7.308  15.712  23.716  0.00  0.00     0.217 HD
ENDBRANCH  11  14
BRANCH  13  16
HETATM   16  O   UNL     1       9.290  12.164  20.039  0.00  0.00    -0.360 OA
HETATM   17  H   UNL     1      10.133  12.561  20.316  0.00  0.00     0.217 HD
ENDBRANCH  13  16
ENDBRANCH   1   8
BRANCH   7  18
HETATM   18  C   UNL     1       5.760   9.389  21.981  0.00  0.00     0.082 A 
HETATM   19  C   UNL     1       4.520   9.578  22.622  0.00  0.00     0.033 A 
HETATM   20  C   UNL     1       4.266   9.067  23.900  0.00  0.00     0.002 A 
HETATM   21  C   UNL     1       5.236   8.319  24.555  0.00  0.00     0.003 A 
HETATM   22  C   UNL     1       6.485   8.158  23.963  0.00  0.00     0.044 A 
HETATM   23  C   UNL     1       6.750   8.728  22.715  0.00  0.00     0.143 A 
HETATM   24  F   UNL     1       8.005   8.646  22.250  0.00  0.00    -0.204 F 
ENDBRANCH   7  18
TORSDOF 4
ENDMDL
MODEL 8
REMARK VINA RESULT:    -5.904      3.348      5.460
REMARK INTER + INTRA:          -7.893
REMARK INTER:                  -7.046
REMARK INTRA:                  -0.848
REMARK UNBOUND:                -0.954
REMARK  4 active torsions:
REMARK  status: ('A' for Active; 'I' for Inactive)
REMARK    1  A    between atoms: O_1  and  C_2 
REMARK    2  A    between atoms: C_5  and  C_6 
REMARK    3  A    between atoms: N_12  and  C_13 
REMARK    4  A    between atoms: C_20  and  O_21 
ROOT
HETATM    1  C   UNL     1       6.160  12.006  23.165  0.00  0.00     0.170 A 
HETATM    2  N   UNL     1       6.847  10.934  23.479  0.00  0.00    -0.153 NA
HETATM    3  N   UNL     1       5.945  10.058  23.962  0.00  0.00    -0.251 N 
HETATM    4  H   UNL     1       6.195   9.098  24.195  0.00  0.00     0.191 HD
HETATM    5  C   UNL     1       4.665  10.577  23.895  0.00  0.00     0.201 A 
HETATM    6  S   UNL     1       3.349   9.621  24.245  0.00  0.00    -0.038 SA
HETATM    7  N   UNL     1       4.804  11.884  23.429  0.00  0.00    -0.266 N 
ENDROOT
BRANCH   1   8
HETATM    8  C   UNL     1       6.885  13.159  22.570  0.00  0.00     0.045 C 
HETATM    9  C   UNL     1       6.654  14.402  23.197  0.00  0.00     0.021 C 
HETATM   10  C   UNL     1       7.361  15.545  22.823  0.00  0.00     0.037 C 
HETATM   11  C   UNL     1       8.322  15.449  21.831  0.00  0.00     0.068 C 
HETATM   12  C   UNL     1       8.511  14.253  21.142  0.00  0.00     0.074 C 
HETATM   13  C   UNL     1       7.747  13.128  21.470  0.00  0.00     0.082 C 
BRANCH  11  14
HETATM   14  O   UNL     1       9.105  16.515  21.498  0.00  0.00    -0.361 OA
HETATM   15  H   UNL     1       9.760  16.653  22.202  0.00  0.00     0.217 HD
ENDBRANCH  11  14
BRANCH  13  16
HETATM   16  O   UNL     1       7.901  12.054  20.640  0.00  0.00    -0.360 OA
HETATM   17  H   UNL     1       7.109  11.493  20.695  0.00  0.00     0.217 HD
ENDBRANCH  13  16
ENDBRANCH   1   8
BRANCH   7  18
HETATM   18  C   UNL     1       3.741  12.823  23.257  0.00  0.00     0.082 A 
HETATM   19  C   UNL     1       2.977  12.815  22.072  0.00  0.00     0.033 A 
HETATM   20  C   UNL     1       1.842  13.619  21.923  0.00  0.00     0.002 A 
HETATM   21  C   UNL     1       1.419  14.427  22.971  0.00  0.00     0.003 A 
HETATM   22  C   UNL     1       2.182  14.488  24.133  0.00  0.00     0.044 A 
HETATM   23  C   UNL     1       3.350  13.730  24.247  0.00  0.00     0.143 A 
HETATM   24  F   UNL     1       4.109  13.921  25.336  0.00  0.00    -0.204 F 
ENDBRANCH   7  18
TORSDOF 4
ENDMDL
MODEL 9
REMARK VINA RESULT:    -5.837      2.980      5.131
REMARK INTER + INTRA:          -7.815
REMARK INTER:                  -6.861
REMARK INTRA:                  -0.954
REMARK UNBOUND:                -0.954
REMARK  4 active torsions:
REMARK  status: ('A' for Active; 'I' for Inactive)
REMARK    1  A    between atoms: O_1  and  C_2 
REMARK    2  A    between atoms: C_5  and  C_6 
REMARK    3  A    between atoms: N_12  and  C_13 
REMARK    4  A    between atoms: C_20  and  O_21 
ROOT
HETATM    1  C   UNL     1       7.329  12.380  21.871  0.00  0.00     0.170 A 
HETATM    2  N   UNL     1       8.247  12.183  20.957  0.00  0.00    -0.153 NA
HETATM    3  N   UNL     1       7.615  11.561  19.942  0.00  0.00    -0.251 N 
HETATM    4  H   UNL     1       8.075  11.372  19.053  0.00  0.00     0.191 HD
HETATM    5  C   UNL     1       6.265  11.419  20.211  0.00  0.00     0.201 A 
HETATM    6  S   UNL     1       5.227  10.862  19.038  0.00  0.00    -0.038 SA
HETATM    7  N   UNL     1       6.080  11.901  21.507  0.00  0.00    -0.266 N 
ENDROOT
BRANCH   1   8
HETATM    8  C   UNL     1       7.719  13.084  23.121  0.00  0.00     0.045 C 
HETATM    9  C   UNL     1       7.161  14.370  23.285  0.00  0.00     0.021 C 
HETATM   10  C   UNL     1       7.340  15.093  24.465  0.00  0.00     0.037 C 
HETATM   11  C   UNL     1       8.066  14.526  25.499  0.00  0.00     0.068 C 
HETATM   12  C   UNL     1       8.695  13.295  25.331  0.00  0.00     0.074 C 
HETATM   13  C   UNL     1       8.573  12.606  24.119  0.00  0.00     0.082 C 
BRANCH  11  14
HETATM   14  O   UNL     1       8.189  15.153  26.704  0.00  0.00    -0.361 OA
HETATM   15  H   UNL     1       8.746  14.609  27.284  0.00  0.00     0.217 HD
ENDBRANCH  11  14
BRANCH  13  16
HETATM   16  O   UNL     1       9.346  11.486  24.002  0.00  0.00    -0.360 OA
HETATM   17  H   UNL     1       9.787  11.493  23.136  0.00  0.00     0.217 HD
ENDBRANCH  13  16
ENDBRANCH   1   8
BRANCH   7  18
HETATM   18  C   UNL     1       4.845  11.898  22.226  0.00  0.00     0.082 A 
HETATM   19  C   UNL     1       3.887  12.903  21.986  0.00  0.00     0.033 A 
HETATM   20  C   UNL     1       2.612  12.858  22.561  0.00  0.00     0.002 A 
HETATM   21  C   UNL     1       2.250  11.784  23.365  0.00  0.00     0.003 A 
HETATM   22  C   UNL     1       3.193  10.803  23.656  0.00  0.00     0.044 A 
HETATM   23  C   UNL     1       4.484  10.892  23.128  0.00  0.00     0.143 A 
HETATM   24  F   UNL     1       5.385   9.989  23.539  0.00  0.00    -0.204 F 
ENDBRANCH   7  18
TORSDOF 4
ENDMDL
