MODEL 1
REMARK VINA RESULT:    -9.119      0.000      0.000
REMARK INTER + INTRA:         -13.230
REMARK INTER:                 -12.204
REMARK INTRA:                  -1.026
REMARK UNBOUND:                -1.178
REMARK  6 active torsions:
REMARK  status: ('A' for Active; 'I' for Inactive)
REMARK    1  A    between atoms: N_8  and  C_9 
REMARK    2  A    between atoms: C_14  and  N_15 
REMARK       I    between atoms: N_15  and  C_17 
REMARK    3  A    between atoms: C_17  and  C_19 
REMARK    4  A    between atoms: C_21  and  O_22 
REMARK    5  A    between atoms: C_29  and  C_30 
REMARK    6  A    between atoms: C_30  and  C_31 
ROOT
HETATM    1  C   UNL     1       8.655  10.677  23.424  0.00  0.00     0.066 C 
HETATM    2  C   UNL     1       8.542  11.761  24.323  0.00  0.00     0.035 C 
HETATM    3  C   UNL     1       9.923  10.062  23.301  0.00  0.00     0.083 C 
HETATM    4  C   UNL     1      11.060  10.555  23.953  0.00  0.00     0.069 C 
HETATM    5  C   UNL     1      10.917  11.744  24.675  0.00  0.00     0.065 A 
HETATM    6  C   UNL     1       9.700  12.383  24.853  0.00  0.00     0.020 A 
HETATM    7  N   UNL     1      11.821  12.509  25.358  0.00  0.00    -0.277 N 
HETATM    8  H   UNL     1      12.807  12.313  25.497  0.00  0.00     0.189 HD
HETATM    9  N   UNL     1      11.316  13.653  25.845  0.00  0.00    -0.178 NA
HETATM   10  C   UNL     1      10.012  13.610  25.537  0.00  0.00     0.071 A 
ENDROOT
BRANCH   1  11
HETATM   11  C   UNL     1       7.504  10.178  22.562  0.00  0.00     0.260 C 
HETATM   12  N   UNL     1       7.164  10.813  21.326  0.00  0.00    -0.318 N 
HETATM   13  C   UNL     1       7.962  11.930  20.807  0.00  0.00     0.159 C 
HETATM   14  O   UNL     1       6.957   9.164  22.992  0.00  0.00    -0.267 OA
BRANCH  12  15
HETATM   15  C   UNL     1       6.105  10.333  20.437  0.00  0.00     0.037 C 
HETATM   16  C   UNL     1       5.643  11.141  19.389  0.00  0.00     0.032 C 
HETATM   17  C   UNL     1       4.792  10.663  18.378  0.00  0.00     0.031 C 
HETATM   18  C   UNL     1       4.308   9.355  18.364  0.00  0.00     0.030 C 
HETATM   19  C   UNL     1       4.625   8.598  19.498  0.00  0.00     0.031 C 
HETATM   20  C   UNL     1       5.510   9.070  20.508  0.00  0.00     0.032 C 
BRANCH  18  21
HETATM   21  N   UNL     1       3.529   8.910  17.299  0.00  0.00    -0.378 N 
HETATM   22  C   UNL     1       2.282   8.157  17.510  0.00  0.00     0.150 C 
HETATM   23  C   UNL     1       2.516   6.634  17.414  0.00  0.00     0.254 C 
HETATM   24  N   UNL     1       3.220   6.270  16.101  0.00  0.00    -0.072 N 
HETATM   25  H   UNL     1       2.591   6.544  15.336  0.00  0.00     0.279 HD
HETATM   26  C   UNL     1       3.466   4.796  15.984  0.00  0.00     0.269 C 
HETATM   27  C   UNL     1       4.509   7.076  15.928  0.00  0.00     0.254 C 
HETATM   28  C   UNL     1       4.213   8.588  16.024  0.00  0.00     0.150 C 
ENDBRANCH  18  21
ENDBRANCH  12  15
ENDBRANCH   1  11
BRANCH   3  29
HETATM   29  O   UNL     1      10.140   8.944  22.531  0.00  0.00    -0.360 OA
HETATM   30  H   UNL     1      11.041   8.609  22.736  0.00  0.00     0.217 HD
ENDBRANCH   3  29
BRANCH  10  31
HETATM   31  C   UNL     1       9.139  14.786  25.921  0.00  0.00     0.100 C 
BRANCH  31  32
HETATM   32  C   UNL     1       8.065  15.078  24.873  0.00  0.00    -0.052 A 
HETATM   33  C   UNL     1       8.346  15.312  23.521  0.00  0.00     0.007 A 
HETATM   34  C   UNL     1       7.330  15.587  22.602  0.00  0.00     0.001 A 
HETATM   35  C   UNL     1       6.013  15.728  23.029  0.00  0.00     0.007 A 
HETATM   36  C   UNL     1       5.705  15.635  24.388  0.00  0.00    -0.061 A 
HETATM   37  C   UNL     1       6.721  15.270  25.295  0.00  0.00     0.014 A 
HETATM   38  C   UNL     1       4.299  15.946  24.834  0.00  0.00     0.048 C 
ENDBRANCH  31  32
ENDBRANCH  10  31
TORSDOF 6
ENDMDL
MODEL 2
REMARK VINA RESULT:    -8.835      4.006      5.062
REMARK INTER + INTRA:         -12.854
REMARK INTER:                 -11.647
REMARK INTRA:                  -1.206
REMARK UNBOUND:                -1.178
REMARK  6 active torsions:
REMARK  status: ('A' for Active; 'I' for Inactive)
REMARK    1  A    between atoms: N_8  and  C_9 
REMARK    2  A    between atoms: C_14  and  N_15 
REMARK       I    between atoms: N_15  and  C_17 
REMARK    3  A    between atoms: C_17  and  C_19 
REMARK    4  A    between atoms: C_21  and  O_22 
REMARK    5  A    between atoms: C_29  and  C_30 
REMARK    6  A    between atoms: C_30  and  C_31 
ROOT
HETATM    1  C   UNL     1       9.540  10.558  23.307  0.00  0.00     0.066 C 
HETATM    2  C   UNL     1       9.440  11.894  23.752  0.00  0.00     0.035 C 
HETATM    3  C   UNL     1      10.575  10.251  22.394  0.00  0.00     0.083 C 
HETATM    4  C   UNL     1      11.415  11.234  21.855  0.00  0.00     0.069 C 
HETATM    5  C   UNL     1      11.137  12.563  22.192  0.00  0.00     0.065 A 
HETATM    6  C   UNL     1      10.154  12.929  23.097  0.00  0.00     0.020 A 
HETATM    7  N   UNL     1      11.710  13.741  21.796  0.00  0.00    -0.277 N 
HETATM    8  H   UNL     1      12.507  13.857  21.180  0.00  0.00     0.189 HD
HETATM    9  N   UNL     1      11.091  14.836  22.264  0.00  0.00    -0.178 NA
HETATM   10  C   UNL     1      10.118  14.367  23.059  0.00  0.00     0.071 A 
ENDROOT
BRANCH   1  11
HETATM   11  C   UNL     1       8.572   9.460  23.724  0.00  0.00     0.260 C 
HETATM   12  N   UNL     1       7.211   9.456  23.287  0.00  0.00    -0.318 N 
HETATM   13  C   UNL     1       6.714  10.476  22.357  0.00  0.00     0.159 C 
HETATM   14  O   UNL     1       9.084   8.569  24.401  0.00  0.00    -0.267 OA
BRANCH  12  15
HETATM   15  C   UNL     1       6.262   8.390  23.614  0.00  0.00     0.037 C 
HETATM   16  C   UNL     1       5.484   8.470  24.778  0.00  0.00     0.032 C 
HETATM   17  C   UNL     1       4.412   7.600  25.037  0.00  0.00     0.031 C 
HETATM   18  C   UNL     1       4.065   6.561  24.172  0.00  0.00     0.030 C 
HETATM   19  C   UNL     1       4.944   6.370  23.100  0.00  0.00     0.031 C 
HETATM   20  C   UNL     1       6.013   7.267  22.820  0.00  0.00     0.032 C 
BRANCH  18  21
HETATM   21  N   UNL     1       2.947   5.775  24.439  0.00  0.00    -0.378 N 
HETATM   22  C   UNL     1       1.682   5.950  23.706  0.00  0.00     0.150 C 
HETATM   23  C   UNL     1       0.698   6.853  24.482  0.00  0.00     0.254 C 
HETATM   24  N   UNL     1       0.495   6.339  25.912  0.00  0.00    -0.072 N 
HETATM   25  H   UNL     1       0.078   5.403  25.839  0.00  0.00     0.279 HD
HETATM   26  C   UNL     1      -0.452   7.201  26.690  0.00  0.00     0.269 C 
HETATM   27  C   UNL     1       1.835   6.174  26.631  0.00  0.00     0.254 C 
HETATM   28  C   UNL     1       2.773   5.258  25.816  0.00  0.00     0.150 C 
ENDBRANCH  18  21
ENDBRANCH  12  15
ENDBRANCH   1  11
BRANCH   3  29
HETATM   29  O   UNL     1      10.835   8.972  21.959  0.00  0.00    -0.360 OA
HETATM   30  H   UNL     1      10.940   9.004  20.982  0.00  0.00     0.217 HD
ENDBRANCH   3  29
BRANCH  10  31
HETATM   31  C   UNL     1       9.193  15.359  23.732  0.00  0.00     0.100 C 
BRANCH  31  32
HETATM   32  C   UNL     1       7.719  15.044  23.476  0.00  0.00    -0.052 A 
HETATM   33  C   UNL     1       7.261  14.350  22.350  0.00  0.00     0.007 A 
HETATM   34  C   UNL     1       5.901  14.096  22.154  0.00  0.00     0.001 A 
HETATM   35  C   UNL     1       4.954  14.612  23.033  0.00  0.00     0.007 A 
HETATM   36  C   UNL     1       5.356  15.423  24.097  0.00  0.00    -0.061 A 
HETATM   37  C   UNL     1       6.734  15.600  24.338  0.00  0.00     0.014 A 
HETATM   38  C   UNL     1       4.298  16.091  24.937  0.00  0.00     0.048 C 
ENDBRANCH  31  32
ENDBRANCH  10  31
TORSDOF 6
ENDMDL
MODEL 3
REMARK VINA RESULT:    -8.690      3.466      4.237
REMARK INTER + INTRA:         -12.663
REMARK INTER:                 -11.220
REMARK INTRA:                  -1.443
REMARK UNBOUND:                -1.178
REMARK  6 active torsions:
REMARK  status: ('A' for Active; 'I' for Inactive)
REMARK    1  A    between atoms: N_8  and  C_9 
REMARK    2  A    between atoms: C_14  and  N_15 
REMARK       I    between atoms: N_15  and  C_17 
REMARK    3  A    between atoms: C_17  and  C_19 
REMARK    4  A    between atoms: C_21  and  O_22 
REMARK    5  A    between atoms: C_29  and  C_30 
REMARK    6  A    between atoms: C_30  and  C_31 
ROOT
HETATM    1  C   UNL     1      10.002  10.715  23.162  0.00  0.00     0.066 C 
HETATM    2  C   UNL     1       9.745  11.922  23.848  0.00  0.00     0.035 C 
HETATM    3  C   UNL     1      10.961  10.747  22.123  0.00  0.00     0.083 C 
HETATM    4  C   UNL     1      11.569  11.937  21.702  0.00  0.00     0.069 C 
HETATM    5  C   UNL     1      11.127  13.123  22.296  0.00  0.00     0.065 A 
HETATM    6  C   UNL     1      10.208  13.158  23.333  0.00  0.00     0.020 A 
HETATM    7  N   UNL     1      11.459  14.431  22.072  0.00  0.00    -0.277 N 
HETATM    8  H   UNL     1      12.153  14.784  21.422  0.00  0.00     0.189 HD
HETATM    9  N   UNL     1      10.735  15.310  22.782  0.00  0.00    -0.178 NA
HETATM   10  C   UNL     1       9.944  14.555  23.559  0.00  0.00     0.071 A 
ENDROOT
BRANCH   1  11
HETATM   11  C   UNL     1       9.272   9.411  23.454  0.00  0.00     0.260 C 
HETATM   12  N   UNL     1       7.949   9.169  22.968  0.00  0.00    -0.318 N 
HETATM   13  C   UNL     1       7.272  10.143  22.105  0.00  0.00     0.159 C 
HETATM   14  O   UNL     1       9.943   8.589  24.076  0.00  0.00    -0.267 OA
BRANCH  12  15
HETATM   15  C   UNL     1       7.233   7.909  23.174  0.00  0.00     0.037 C 
HETATM   16  C   UNL     1       6.244   7.812  24.163  0.00  0.00     0.032 C 
HETATM   17  C   UNL     1       5.377   6.711  24.267  0.00  0.00     0.031 C 
HETATM   18  C   UNL     1       5.463   5.608  23.417  0.00  0.00     0.030 C 
HETATM   19  C   UNL     1       6.557   5.622  22.544  0.00  0.00     0.031 C 
HETATM   20  C   UNL     1       7.418   6.748  22.417  0.00  0.00     0.032 C 
BRANCH  18  21
HETATM   21  N   UNL     1       4.532   4.578  23.515  0.00  0.00    -0.378 N 
HETATM   22  C   UNL     1       4.427   3.526  22.490  0.00  0.00     0.150 C 
HETATM   23  C   UNL     1       3.322   3.847  21.460  0.00  0.00     0.254 C 
HETATM   24  N   UNL     1       1.989   4.137  22.159  0.00  0.00    -0.072 N 
HETATM   25  H   UNL     1       1.719   3.280  22.659  0.00  0.00     0.279 HD
HETATM   26  C   UNL     1       0.899   4.458  21.182  0.00  0.00     0.269 C 
HETATM   27  C   UNL     1       2.149   5.235  23.213  0.00  0.00     0.254 C 
HETATM   28  C   UNL     1       3.258   4.857  24.218  0.00  0.00     0.150 C 
ENDBRANCH  18  21
ENDBRANCH  12  15
ENDBRANCH   1  11
BRANCH   3  29
HETATM   29  O   UNL     1      11.366   9.622  21.443  0.00  0.00    -0.360 OA
HETATM   30  H   UNL     1      11.260   9.798  20.482  0.00  0.00     0.217 HD
ENDBRANCH   3  29
BRANCH  10  31
HETATM   31  C   UNL     1       8.958  15.246  24.477  0.00  0.00     0.100 C 
BRANCH  31  32
HETATM   32  C   UNL     1       7.511  15.058  24.021  0.00  0.00    -0.052 A 
HETATM   33  C   UNL     1       7.155  14.527  22.776  0.00  0.00     0.007 A 
HETATM   34  C   UNL     1       5.817  14.385  22.399  0.00  0.00     0.001 A 
HETATM   35  C   UNL     1       4.800  14.859  23.221  0.00  0.00     0.007 A 
HETATM   36  C   UNL     1       5.113  15.517  24.413  0.00  0.00    -0.061 A 
HETATM   37  C   UNL     1       6.460  15.576  24.827  0.00  0.00     0.014 A 
HETATM   38  C   UNL     1       3.998  16.153  25.203  0.00  0.00     0.048 C 
ENDBRANCH  31  32
ENDBRANCH  10  31
TORSDOF 6
ENDMDL
MODEL 4
REMARK VINA RESULT:    -8.632      2.090      3.401
REMARK INTER + INTRA:         -12.585
REMARK INTER:                 -11.458
REMARK INTRA:                  -1.128
REMARK UNBOUND:                -1.178
REMARK  6 active torsions:
REMARK  status: ('A' for Active; 'I' for Inactive)
REMARK    1  A    between atoms: N_8  and  C_9 
REMARK    2  A    between atoms: C_14  and  N_15 
REMARK       I    between atoms: N_15  and  C_17 
REMARK    3  A    between atoms: C_17  and  C_19 
REMARK    4  A    between atoms: C_21  and  O_22 
REMARK    5  A    between atoms: C_29  and  C_30 
REMARK    6  A    between atoms: C_30  and  C_31 
ROOT
HETATM    1  C   UNL     1       6.202  11.326  22.244  0.00  0.00     0.066 C 
HETATM    2  C   UNL     1       5.722  12.565  22.724  0.00  0.00     0.035 C 
HETATM    3  C   UNL     1       7.522  10.959  22.593  0.00  0.00     0.083 C 
HETATM    4  C   UNL     1       8.376  11.817  23.298  0.00  0.00     0.069 C 
HETATM    5  C   UNL     1       7.901  13.103  23.576  0.00  0.00     0.065 A 
HETATM    6  C   UNL     1       6.612  13.517  23.281  0.00  0.00     0.020 A 
HETATM    7  N   UNL     1       8.491  14.180  24.176  0.00  0.00    -0.277 N 
HETATM    8  H   UNL     1       9.421  14.224  24.580  0.00  0.00     0.189 HD
HETATM    9  N   UNL     1       7.739  15.292  24.170  0.00  0.00    -0.178 NA
HETATM   10  C   UNL     1       6.579  14.917  23.611  0.00  0.00     0.071 A 
ENDROOT
BRANCH   1  11
HETATM   11  C   UNL     1       5.391  10.405  21.343  0.00  0.00     0.260 C 
HETATM   12  N   UNL     1       5.604  10.362  19.930  0.00  0.00    -0.318 N 
HETATM   13  C   UNL     1       6.666  11.156  19.302  0.00  0.00     0.159 C 
HETATM   14  O   UNL     1       4.605   9.677  21.947  0.00  0.00    -0.267 OA
BRANCH  12  15
HETATM   15  C   UNL     1       4.891   9.450  19.034  0.00  0.00     0.037 C 
HETATM   16  C   UNL     1       4.840   8.077  19.317  0.00  0.00     0.032 C 
HETATM   17  C   UNL     1       4.002   7.188  18.625  0.00  0.00     0.031 C 
HETATM   18  C   UNL     1       3.183   7.598  17.572  0.00  0.00     0.030 C 
HETATM   19  C   UNL     1       3.359   8.927  17.173  0.00  0.00     0.031 C 
HETATM   20  C   UNL     1       4.187   9.836  17.890  0.00  0.00     0.032 C 
BRANCH  18  21
HETATM   21  N   UNL     1       2.314   6.691  16.970  0.00  0.00    -0.378 N 
HETATM   22  C   UNL     1       2.123   5.331  17.498  0.00  0.00     0.150 C 
HETATM   23  C   UNL     1       3.014   4.306  16.762  0.00  0.00     0.254 C 
HETATM   24  N   UNL     1       2.810   4.394  15.245  0.00  0.00    -0.072 N 
HETATM   25  H   UNL     1       1.829   4.153  15.059  0.00  0.00     0.279 HD
HETATM   26  C   UNL     1       3.668   3.413  14.505  0.00  0.00     0.269 C 
HETATM   27  C   UNL     1       3.020   5.824  14.745  0.00  0.00     0.254 C 
HETATM   28  C   UNL     1       2.100   6.801  15.508  0.00  0.00     0.150 C 
ENDBRANCH  18  21
ENDBRANCH  12  15
ENDBRANCH   1  11
BRANCH   3  29
HETATM   29  O   UNL     1       8.071   9.741  22.266  0.00  0.00    -0.360 OA
HETATM   30  H   UNL     1       8.577   9.422  23.045  0.00  0.00     0.217 HD
ENDBRANCH   3  29
BRANCH  10  31
HETATM   31  C   UNL     1       5.498  15.961  23.420  0.00  0.00     0.100 C 
BRANCH  31  32
HETATM   32  C   UNL     1       4.118  15.448  23.831  0.00  0.00    -0.052 A 
HETATM   33  C   UNL     1       3.743  15.214  25.159  0.00  0.00     0.007 A 
HETATM   34  C   UNL     1       2.473  14.733  25.484  0.00  0.00     0.001 A 
HETATM   35  C   UNL     1       1.573  14.384  24.482  0.00  0.00     0.007 A 
HETATM   36  C   UNL     1       1.952  14.475  23.140  0.00  0.00    -0.061 A 
HETATM   37  C   UNL     1       3.201  15.044  22.820  0.00  0.00     0.014 A 
HETATM   38  C   UNL     1       1.014  13.945  22.086  0.00  0.00     0.048 C 
ENDBRANCH  31  32
ENDBRANCH  10  31
TORSDOF 6
ENDMDL
MODEL 5
REMARK VINA RESULT:    -8.608      4.270      6.128
REMARK INTER + INTRA:         -12.554
REMARK INTER:                 -11.485
REMARK INTRA:                  -1.068
REMARK UNBOUND:                -1.178
REMARK  6 active torsions:
REMARK  status: ('A' for Active; 'I' for Inactive)
REMARK    1  A    between atoms: N_8  and  C_9 
REMARK    2  A    between atoms: C_14  and  N_15 
REMARK       I    between atoms: N_15  and  C_17 
REMARK    3  A    between atoms: C_17  and  C_19 
REMARK    4  A    between atoms: C_21  and  O_22 
REMARK    5  A    between atoms: C_29  and  C_30 
REMARK    6  A    between atoms: C_30  and  C_31 
ROOT
HETATM    1  C   UNL     1       8.057  13.013  23.022  0.00  0.00     0.066 C 
HETATM    2  C   UNL     1       9.469  13.054  23.055  0.00  0.00     0.035 C 
HETATM    3  C   UNL     1       7.392  14.041  22.315  0.00  0.00     0.083 C 
HETATM    4  C   UNL     1       8.076  15.126  21.751  0.00  0.00     0.069 C 
HETATM    5  C   UNL     1       9.453  15.203  21.986  0.00  0.00     0.065 A 
HETATM    6  C   UNL     1      10.167  14.219  22.650  0.00  0.00     0.020 A 
HETATM    7  N   UNL     1      10.383  16.144  21.640  0.00  0.00    -0.277 N 
HETATM    8  H   UNL     1      10.232  16.981  21.089  0.00  0.00     0.189 HD
HETATM    9  N   UNL     1      11.607  15.915  22.142  0.00  0.00    -0.178 NA
HETATM   10  C   UNL     1      11.502  14.741  22.782  0.00  0.00     0.071 A 
ENDROOT
BRANCH   1  11
HETATM   11  C   UNL     1       7.231  11.955  23.740  0.00  0.00     0.260 C 
HETATM   12  N   UNL     1       6.725  10.807  23.054  0.00  0.00    -0.318 N 
HETATM   13  C   UNL     1       7.046  10.570  21.642  0.00  0.00     0.159 C 
HETATM   14  O   UNL     1       7.105  12.151  24.948  0.00  0.00    -0.267 OA
BRANCH  12  15
HETATM   15  C   UNL     1       5.978   9.736  23.715  0.00  0.00     0.037 C 
HETATM   16  C   UNL     1       4.616   9.899  24.006  0.00  0.00     0.032 C 
HETATM   17  C   UNL     1       3.799   8.842  24.438  0.00  0.00     0.031 C 
HETATM   18  C   UNL     1       4.291   7.554  24.652  0.00  0.00     0.030 C 
HETATM   19  C   UNL     1       5.680   7.428  24.532  0.00  0.00     0.031 C 
HETATM   20  C   UNL     1       6.505   8.490  24.067  0.00  0.00     0.032 C 
BRANCH  18  21
HETATM   21  N   UNL     1       3.423   6.525  25.007  0.00  0.00    -0.378 N 
HETATM   22  C   UNL     1       2.367   6.051  24.098  0.00  0.00     0.150 C 
HETATM   23  C   UNL     1       1.010   6.722  24.407  0.00  0.00     0.254 C 
HETATM   24  N   UNL     1       0.644   6.559  25.887  0.00  0.00    -0.072 N 
HETATM   25  H   UNL     1       0.548   5.551  26.064  0.00  0.00     0.279 HD
HETATM   26  C   UNL     1      -0.667   7.206  26.217  0.00  0.00     0.269 C 
HETATM   27  C   UNL     1       1.770   7.064  26.790  0.00  0.00     0.254 C 
HETATM   28  C   UNL     1       3.097   6.355  26.442  0.00  0.00     0.150 C 
ENDBRANCH  18  21
ENDBRANCH  12  15
ENDBRANCH   1  11
BRANCH   3  29
HETATM   29  O   UNL     1       6.029  14.063  22.131  0.00  0.00    -0.360 OA
HETATM   30  H   UNL     1       5.644  13.327  22.656  0.00  0.00     0.217 HD
ENDBRANCH   3  29
BRANCH  10  31
HETATM   31  C   UNL     1      12.718  14.198  23.502  0.00  0.00     0.100 C 
BRANCH  31  32
HETATM   32  C   UNL     1      12.556  14.233  25.021  0.00  0.00    -0.052 A 
HETATM   33  C   UNL     1      13.382  13.529  25.905  0.00  0.00     0.007 A 
HETATM   34  C   UNL     1      13.187  13.584  27.287  0.00  0.00     0.001 A 
HETATM   35  C   UNL     1      12.099  14.269  27.818  0.00  0.00     0.007 A 
HETATM   36  C   UNL     1      11.171  14.875  26.968  0.00  0.00    -0.061 A 
HETATM   37  C   UNL     1      11.425  14.891  25.581  0.00  0.00     0.014 A 
HETATM   38  C   UNL     1       9.925  15.474  27.566  0.00  0.00     0.048 C 
ENDBRANCH  31  32
ENDBRANCH  10  31
TORSDOF 6
ENDMDL
MODEL 6
REMARK VINA RESULT:    -8.582      1.533      2.075
REMARK INTER + INTRA:         -12.520
REMARK INTER:                 -11.341
REMARK INTRA:                  -1.178
REMARK UNBOUND:                -1.178
REMARK  6 active torsions:
REMARK  status: ('A' for Active; 'I' for Inactive)
REMARK    1  A    between atoms: N_8  and  C_9 
REMARK    2  A    between atoms: C_14  and  N_15 
REMARK       I    between atoms: N_15  and  C_17 
REMARK    3  A    between atoms: C_17  and  C_19 
REMARK    4  A    between atoms: C_21  and  O_22 
REMARK    5  A    between atoms: C_29  and  C_30 
REMARK    6  A    between atoms: C_30  and  C_31 
ROOT
HETATM    1  C   UNL     1       8.772  11.274  22.849  0.00  0.00     0.066 C 
HETATM    2  C   UNL     1       8.307  12.056  23.929  0.00  0.00     0.035 C 
HETATM    3  C   UNL     1      10.080  11.529  22.375  0.00  0.00     0.083 C 
HETATM    4  C   UNL     1      10.863  12.580  22.869  0.00  0.00     0.069 C 
HETATM    5  C   UNL     1      10.268  13.434  23.803  0.00  0.00     0.065 A 
HETATM    6  C   UNL     1       9.001  13.226  24.325  0.00  0.00     0.020 A 
HETATM    7  N   UNL     1      10.724  14.566  24.421  0.00  0.00    -0.277 N 
HETATM    8  H   UNL     1      11.642  14.987  24.329  0.00  0.00     0.189 HD
HETATM    9  N   UNL     1       9.810  15.177  25.191  0.00  0.00    -0.178 NA
HETATM   10  C   UNL     1       8.732  14.381  25.140  0.00  0.00     0.071 A 
ENDROOT
BRANCH   1  11
HETATM   11  C   UNL     1       7.927  10.216  22.153  0.00  0.00     0.260 C 
HETATM   12  N   UNL     1       6.963  10.564  21.156  0.00  0.00    -0.318 N 
HETATM   13  C   UNL     1       6.803  11.954  20.714  0.00  0.00     0.159 C 
HETATM   14  O   UNL     1       8.198   9.062  22.480  0.00  0.00    -0.267 OA
BRANCH  12  15
HETATM   15  C   UNL     1       6.171   9.578  20.420  0.00  0.00     0.037 C 
HETATM   16  C   UNL     1       5.543   8.525  21.101  0.00  0.00     0.032 C 
HETATM   17  C   UNL     1       4.602   7.679  20.491  0.00  0.00     0.031 C 
HETATM   18  C   UNL     1       4.253   7.795  19.145  0.00  0.00     0.030 C 
HETATM   19  C   UNL     1       5.004   8.728  18.420  0.00  0.00     0.031 C 
HETATM   20  C   UNL     1       5.936   9.605  19.042  0.00  0.00     0.032 C 
BRANCH  18  21
HETATM   21  N   UNL     1       3.259   6.980  18.609  0.00  0.00    -0.378 N 
HETATM   22  C   UNL     1       3.473   5.541  18.383  0.00  0.00     0.150 C 
HETATM   23  C   UNL     1       3.895   5.253  16.925  0.00  0.00     0.254 C 
HETATM   24  N   UNL     1       2.901   5.873  15.936  0.00  0.00    -0.072 N 
HETATM   25  H   UNL     1       1.992   5.422  16.099  0.00  0.00     0.279 HD
HETATM   26  C   UNL     1       3.290   5.614  14.511  0.00  0.00     0.269 C 
HETATM   27  C   UNL     1       2.713   7.366  16.210  0.00  0.00     0.254 C 
HETATM   28  C   UNL     1       2.285   7.593  17.676  0.00  0.00     0.150 C 
ENDBRANCH  18  21
ENDBRANCH  12  15
ENDBRANCH   1  11
BRANCH   3  29
HETATM   29  O   UNL     1      10.680  10.777  21.392  0.00  0.00    -0.360 OA
HETATM   30  H   UNL     1      10.860  11.369  20.629  0.00  0.00     0.217 HD
ENDBRANCH   3  29
BRANCH  10  31
HETATM   31  C   UNL     1       7.485  14.804  25.887  0.00  0.00     0.100 C 
BRANCH  31  32
HETATM   32  C   UNL     1       6.250  14.830  24.986  0.00  0.00    -0.052 A 
HETATM   33  C   UNL     1       5.832  15.963  24.277  0.00  0.00     0.007 A 
HETATM   34  C   UNL     1       4.689  15.941  23.476  0.00  0.00     0.001 A 
HETATM   35  C   UNL     1       3.878  14.811  23.436  0.00  0.00     0.007 A 
HETATM   36  C   UNL     1       4.182  13.704  24.231  0.00  0.00    -0.061 A 
HETATM   37  C   UNL     1       5.384  13.701  24.967  0.00  0.00     0.014 A 
HETATM   38  C   UNL     1       3.202  12.560  24.283  0.00  0.00     0.048 C 
ENDBRANCH  31  32
ENDBRANCH  10  31
TORSDOF 6
ENDMDL
MODEL 7
REMARK VINA RESULT:    -8.505      4.424      5.692
REMARK INTER + INTRA:         -12.418
REMARK INTER:                 -11.909
REMARK INTRA:                  -0.509
REMARK UNBOUND:                -1.178
REMARK  6 active torsions:
REMARK  status: ('A' for Active; 'I' for Inactive)
REMARK    1  A    between atoms: N_8  and  C_9 
REMARK    2  A    between atoms: C_14  and  N_15 
REMARK       I    between atoms: N_15  and  C_17 
REMARK    3  A    between atoms: C_17  and  C_19 
REMARK    4  A    between atoms: C_21  and  O_22 
REMARK    5  A    between atoms: C_29  and  C_30 
REMARK    6  A    between atoms: C_30  and  C_31 
ROOT
HETATM    1  C   UNL     1       8.611  10.735  22.866  0.00  0.00     0.066 C 
HETATM    2  C   UNL     1       8.636  12.144  22.953  0.00  0.00     0.035 C 
HETATM    3  C   UNL     1       9.827  10.079  22.564  0.00  0.00     0.083 C 
HETATM    4  C   UNL     1      11.000  10.781  22.256  0.00  0.00     0.069 C 
HETATM    5  C   UNL     1      10.906  12.174  22.173  0.00  0.00     0.065 A 
HETATM    6  C   UNL     1       9.752  12.878  22.477  0.00  0.00     0.020 A 
HETATM    7  N   UNL     1      11.825  13.129  21.837  0.00  0.00    -0.277 N 
HETATM    8  H   UNL     1      12.804  12.985  21.613  0.00  0.00     0.189 HD
HETATM    9  N   UNL     1      11.325  14.373  21.770  0.00  0.00    -0.178 NA
HETATM   10  C   UNL     1      10.043  14.247  22.146  0.00  0.00     0.071 A 
ENDROOT
BRANCH   1  11
HETATM   11  C   UNL     1       7.346   9.906  23.035  0.00  0.00     0.260 C 
HETATM   12  N   UNL     1       6.328  10.274  23.969  0.00  0.00    -0.318 N 
HETATM   13  C   UNL     1       6.434  11.511  24.752  0.00  0.00     0.159 C 
HETATM   14  O   UNL     1       7.263   8.953  22.261  0.00  0.00    -0.267 OA
BRANCH  12  15
HETATM   15  C   UNL     1       5.070   9.542  24.122  0.00  0.00     0.037 C 
HETATM   16  C   UNL     1       5.082   8.168  24.405  0.00  0.00     0.032 C 
HETATM   17  C   UNL     1       3.928   7.457  24.773  0.00  0.00     0.031 C 
HETATM   18  C   UNL     1       2.671   8.058  24.846  0.00  0.00     0.030 C 
HETATM   19  C   UNL     1       2.624   9.383  24.398  0.00  0.00     0.031 C 
HETATM   20  C   UNL     1       3.796  10.112  24.051  0.00  0.00     0.032 C 
BRANCH  18  21
HETATM   21  N   UNL     1       1.572   7.326  25.291  0.00  0.00    -0.378 N 
HETATM   22  C   UNL     1       0.208   7.605  24.813  0.00  0.00     0.150 C 
HETATM   23  C   UNL     1      -0.556   8.527  25.788  0.00  0.00     0.254 C 
HETATM   24  N   UNL     1      -0.524   7.963  27.214  0.00  0.00    -0.072 N 
HETATM   25  H   UNL     1      -1.007   7.056  27.189  0.00  0.00     0.279 HD
HETATM   26  C   UNL     1      -1.255   8.842  28.183  0.00  0.00     0.269 C 
HETATM   27  C   UNL     1       0.912   7.690  27.664  0.00  0.00     0.254 C 
HETATM   28  C   UNL     1       1.623   6.759  26.659  0.00  0.00     0.150 C 
ENDBRANCH  18  21
ENDBRANCH  12  15
ENDBRANCH   1  11
BRANCH   3  29
HETATM   29  O   UNL     1       9.954   8.710  22.543  0.00  0.00    -0.360 OA
HETATM   30  H   UNL     1      10.913   8.498  22.525  0.00  0.00     0.217 HD
ENDBRANCH   3  29
BRANCH  10  31
HETATM   31  C   UNL     1       9.166  15.482  22.149  0.00  0.00     0.100 C 
BRANCH  31  32
HETATM   32  C   UNL     1       8.149  15.468  23.290  0.00  0.00    -0.052 A 
HETATM   33  C   UNL     1       8.459  15.078  24.598  0.00  0.00     0.007 A 
HETATM   34  C   UNL     1       7.491  15.070  25.605  0.00  0.00     0.001 A 
HETATM   35  C   UNL     1       6.164  15.363  25.310  0.00  0.00     0.007 A 
HETATM   36  C   UNL     1       5.783  15.628  23.992  0.00  0.00    -0.061 A 
HETATM   37  C   UNL     1       6.780  15.721  22.999  0.00  0.00     0.014 A 
HETATM   38  C   UNL     1       4.317  15.788  23.680  0.00  0.00     0.048 C 
ENDBRANCH  31  32
ENDBRANCH  10  31
TORSDOF 6
ENDMDL
MODEL 8
REMARK VINA RESULT:    -8.449      2.274      3.645
REMARK INTER + INTRA:         -12.344
REMARK INTER:                 -11.456
REMARK INTRA:                  -0.888
REMARK UNBOUND:                -1.178
REMARK  6 active torsions:
REMARK  status: ('A' for Active; 'I' for Inactive)
REMARK    1  A    between atoms: N_8  and  C_9 
REMARK    2  A    between atoms: C_14  and  N_15 
REMARK       I    between atoms: N_15  and  C_17 
REMARK    3  A    between atoms: C_17  and  C_19 
REMARK    4  A    between atoms: C_21  and  O_22 
REMARK    5  A    between atoms: C_29  and  C_30 
REMARK    6  A    between atoms: C_30  and  C_31 
ROOT
HETATM    1  C   UNL     1       6.165   9.018  21.535  0.00  0.00     0.066 C 
HETATM    2  C   UNL     1       6.149  10.425  21.648  0.00  0.00     0.035 C 
HETATM    3  C   UNL     1       7.072   8.308  22.354  0.00  0.00     0.083 C 
HETATM    4  C   UNL     1       8.002   8.956  23.178  0.00  0.00     0.069 C 
HETATM    5  C   UNL     1       8.061  10.351  23.098  0.00  0.00     0.065 A 
HETATM    6  C   UNL     1       7.187  11.106  22.333  0.00  0.00     0.020 A 
HETATM    7  N   UNL     1       8.880  11.263  23.704  0.00  0.00    -0.277 N 
HETATM    8  H   UNL     1       9.607  11.075  24.386  0.00  0.00     0.189 HD
HETATM    9  N   UNL     1       8.695  12.527  23.291  0.00  0.00    -0.178 NA
HETATM   10  C   UNL     1       7.666  12.460  22.434  0.00  0.00     0.071 A 
ENDROOT
BRANCH   1  11
HETATM   11  C   UNL     1       5.295   8.246  20.552  0.00  0.00     0.260 C 
HETATM   12  N   UNL     1       5.240   8.594  19.167  0.00  0.00    -0.318 N 
HETATM   13  C   UNL     1       6.079   9.670  18.625  0.00  0.00     0.159 C 
HETATM   14  O   UNL     1       4.716   7.280  21.047  0.00  0.00    -0.267 OA
BRANCH  12  15
HETATM   15  C   UNL     1       4.466   7.844  18.176  0.00  0.00     0.037 C 
HETATM   16  C   UNL     1       3.475   8.487  17.420  0.00  0.00     0.032 C 
HETATM   17  C   UNL     1       2.851   7.885  16.315  0.00  0.00     0.031 C 
HETATM   18  C   UNL     1       3.142   6.582  15.910  0.00  0.00     0.030 C 
HETATM   19  C   UNL     1       3.999   5.878  16.763  0.00  0.00     0.031 C 
HETATM   20  C   UNL     1       4.653   6.495  17.866  0.00  0.00     0.032 C 
BRANCH  18  21
HETATM   21  N   UNL     1       2.552   6.060  14.762  0.00  0.00    -0.378 N 
HETATM   22  C   UNL     1       1.151   5.606  14.746  0.00  0.00     0.150 C 
HETATM   23  C   UNL     1       1.047   4.082  14.972  0.00  0.00     0.254 C 
HETATM   24  N   UNL     1       1.935   3.320  13.981  0.00  0.00    -0.072 N 
HETATM   25  H   UNL     1       1.580   3.526  13.039  0.00  0.00     0.279 HD
HETATM   26  C   UNL     1       1.857   1.836  14.182  0.00  0.00     0.269 C 
HETATM   27  C   UNL     1       3.377   3.826  14.034  0.00  0.00     0.254 C 
HETATM   28  C   UNL     1       3.421   5.350  13.794  0.00  0.00     0.150 C 
ENDBRANCH  18  21
ENDBRANCH  12  15
ENDBRANCH   1  11
BRANCH   3  29
HETATM   29  O   UNL     1       7.119   6.934  22.404  0.00  0.00    -0.360 OA
HETATM   30  H   UNL     1       7.713   6.629  21.683  0.00  0.00     0.217 HD
ENDBRANCH   3  29
BRANCH  10  31
HETATM   31  C   UNL     1       7.213  13.731  21.747  0.00  0.00     0.100 C 
BRANCH  31  32
HETATM   32  C   UNL     1       6.068  14.417  22.493  0.00  0.00    -0.052 A 
HETATM   33  C   UNL     1       6.238  15.547  23.302  0.00  0.00     0.007 A 
HETATM   34  C   UNL     1       5.162  16.131  23.974  0.00  0.00     0.001 A 
HETATM   35  C   UNL     1       3.901  15.544  23.931  0.00  0.00     0.007 A 
HETATM   36  C   UNL     1       3.714  14.341  23.245  0.00  0.00    -0.061 A 
HETATM   37  C   UNL     1       4.783  13.807  22.497  0.00  0.00     0.014 A 
HETATM   38  C   UNL     1       2.377  13.653  23.346  0.00  0.00     0.048 C 
ENDBRANCH  31  32
ENDBRANCH  10  31
TORSDOF 6
ENDMDL
MODEL 9
REMARK VINA RESULT:    -8.362      5.342      7.474
REMARK INTER + INTRA:         -12.230
REMARK INTER:                 -11.000
REMARK INTRA:                  -1.230
REMARK UNBOUND:                -1.178
REMARK  6 active torsions:
REMARK  status: ('A' for Active; 'I' for Inactive)
REMARK    1  A    between atoms: N_8  and  C_9 
REMARK    2  A    between atoms: C_14  and  N_15 
REMARK       I    between atoms: N_15  and  C_17 
REMARK    3  A    between atoms: C_17  and  C_19 
REMARK    4  A    between atoms: C_21  and  O_22 
REMARK    5  A    between atoms: C_29  and  C_30 
REMARK    6  A    between atoms: C_30  and  C_31 
ROOT
HETATM    1  C   UNL     1       5.924  13.035  23.667  0.00  0.00     0.066 C 
HETATM    2  C   UNL     1       7.271  12.889  23.267  0.00  0.00     0.035 C 
HETATM    3  C   UNL     1       5.306  14.284  23.430  0.00  0.00     0.083 C 
HETATM    4  C   UNL     1       6.008  15.382  22.918  0.00  0.00     0.069 C 
HETATM    5  C   UNL     1       7.385  15.225  22.724  0.00  0.00     0.065 A 
HETATM    6  C   UNL     1       8.046  14.022  22.915  0.00  0.00     0.020 A 
HETATM    7  N   UNL     1       8.351  16.099  22.308  0.00  0.00    -0.277 N 
HETATM    8  H   UNL     1       8.221  17.062  22.017  0.00  0.00     0.189 HD
HETATM    9  N   UNL     1       9.596  15.599  22.346  0.00  0.00    -0.178 NA
HETATM   10  C   UNL     1       9.442  14.323  22.729  0.00  0.00     0.071 A 
ENDROOT
BRANCH   1  11
HETATM   11  C   UNL     1       5.135  11.940  24.371  0.00  0.00     0.260 C 
HETATM   12  N   UNL     1       4.540  10.861  23.646  0.00  0.00    -0.318 N 
HETATM   13  C   UNL     1       4.731  10.730  22.196  0.00  0.00     0.159 C 
HETATM   14  O   UNL     1       5.120  12.042  25.597  0.00  0.00    -0.267 OA
BRANCH  12  15
HETATM   15  C   UNL     1       3.825   9.756  24.286  0.00  0.00     0.037 C 
HETATM   16  C   UNL     1       4.534   8.670  24.819  0.00  0.00     0.032 C 
HETATM   17  C   UNL     1       3.932   7.692  25.629  0.00  0.00     0.031 C 
HETATM   18  C   UNL     1       2.570   7.705  25.930  0.00  0.00     0.030 C 
HETATM   19  C   UNL     1       1.828   8.684  25.260  0.00  0.00     0.031 C 
HETATM   20  C   UNL     1       2.440   9.692  24.462  0.00  0.00     0.032 C 
BRANCH  18  21
HETATM   21  N   UNL     1       2.039   6.755  26.799  0.00  0.00    -0.378 N 
HETATM   22  C   UNL     1       0.638   6.812  27.249  0.00  0.00     0.150 C 
HETATM   23  C   UNL     1       0.513   7.509  28.622  0.00  0.00     0.254 C 
HETATM   24  N   UNL     1       1.447   6.863  29.651  0.00  0.00    -0.072 N 
HETATM   25  H   UNL     1       1.145   5.887  29.761  0.00  0.00     0.279 HD
HETATM   26  C   UNL     1       1.349   7.525  30.993  0.00  0.00     0.269 C 
HETATM   27  C   UNL     1       2.888   6.827  29.139  0.00  0.00     0.254 C 
HETATM   28  C   UNL     1       2.954   6.114  27.771  0.00  0.00     0.150 C 
ENDBRANCH  18  21
ENDBRANCH  12  15
ENDBRANCH   1  11
BRANCH   3  29
HETATM   29  O   UNL     1       3.976  14.522  23.688  0.00  0.00    -0.360 OA
HETATM   30  H   UNL     1       3.478  13.703  23.474  0.00  0.00     0.217 HD
ENDBRANCH   3  29
BRANCH  10  31
HETATM   31  C   UNL     1      10.678  13.467  22.907  0.00  0.00     0.100 C 
BRANCH  31  32
HETATM   32  C   UNL     1      11.653  14.061  23.923  0.00  0.00    -0.052 A 
HETATM   33  C   UNL     1      12.926  14.539  23.587  0.00  0.00     0.007 A 
HETATM   34  C   UNL     1      13.787  15.062  24.553  0.00  0.00     0.001 A 
HETATM   35  C   UNL     1      13.436  15.036  25.899  0.00  0.00     0.007 A 
HETATM   36  C   UNL     1      12.233  14.446  26.296  0.00  0.00    -0.061 A 
HETATM   37  C   UNL     1      11.331  14.002  25.307  0.00  0.00     0.014 A 
HETATM   38  C   UNL     1      11.953  14.294  27.769  0.00  0.00     0.048 C 
ENDBRANCH  31  32
ENDBRANCH  10  31
TORSDOF 6
ENDMDL
