MODEL 1
REMARK VINA RESULT:    -9.040      0.000      0.000
REMARK INTER + INTRA:         -15.235
REMARK INTER:                 -12.542
REMARK INTRA:                  -2.693
REMARK UNBOUND:                -2.495
REMARK  8 active torsions:
REMARK  status: ('A' for Active; 'I' for Inactive)
REMARK    1  A    between atoms: C_7  and  N_8 
REMARK    2  A    between atoms: C_14  and  C_15 
REMARK    3  A    between atoms: C_17  and  C_18 
REMARK       I    between atoms: C_18  and  N_20 
REMARK    4  A    between atoms: N_20  and  C_22 
REMARK    5  A    between atoms: C_22  and  C_23 
REMARK    6  A    between atoms: C_28  and  C_29 
REMARK    7  A    between atoms: C_35  and  O_36 
REMARK    8  A    between atoms: C_38  and  O_39 
ROOT
HETATM    1  C   UNL     1       1.955   5.782  17.221  0.00  0.00     0.046 C 
HETATM    2  C   UNL     1       3.224   6.177  17.693  0.00  0.00     0.038 C 
HETATM    3  C   UNL     1       3.495   7.456  18.193  0.00  0.00     0.066 C 
HETATM    4  C   UNL     1       2.456   8.388  18.185  0.00  0.00     0.084 C 
HETATM    5  C   UNL     1       1.176   8.022  17.768  0.00  0.00     0.075 C 
HETATM    6  C   UNL     1       0.919   6.706  17.358  0.00  0.00     0.082 C 
ENDROOT
BRANCH   3   7
HETATM    7  C   UNL     1       4.779   7.759  18.903  0.00  0.00     0.256 C 
HETATM    8  O   UNL     1       5.796   7.759  18.207  0.00  0.00    -0.267 OA
HETATM    9  N   UNL     1       4.808   8.078  20.265  0.00  0.00    -0.348 N 
HETATM   10  C   UNL     1       6.008   8.713  20.795  0.00  0.00     0.153 C 
BRANCH   9  11
HETATM   11  C   UNL     1       3.894   7.475  21.239  0.00  0.00     0.165 C 
BRANCH  11  12
HETATM   12  C   UNL     1       4.501   6.925  22.524  0.00  0.00    -0.029 A 
HETATM   13  C   UNL     1       5.300   5.757  22.478  0.00  0.00     0.010 A 
HETATM   14  C   UNL     1       5.762   5.134  23.634  0.00  0.00     0.001 A 
HETATM   15  C   UNL     1       5.449   5.674  24.868  0.00  0.00     0.001 A 
HETATM   16  C   UNL     1       4.725   6.866  24.939  0.00  0.00     0.013 A 
HETATM   17  C   UNL     1       4.239   7.531  23.788  0.00  0.00    -0.017 A 
BRANCH  17  18
HETATM   18  C   UNL     1       3.444   8.780  23.967  0.00  0.00    -0.008 A 
HETATM   19  C   UNL     1       3.970  10.039  23.638  0.00  0.00     0.015 A 
HETATM   20  C   UNL     1       3.256  11.209  23.894  0.00  0.00     0.020 A 
HETATM   21  C   UNL     1       2.018  11.105  24.499  0.00  0.00     0.116 A 
HETATM   22  N   UNL     1       1.429   9.926  24.768  0.00  0.00    -0.272 NA
HETATM   23  C   UNL     1       2.135   8.810  24.457  0.00  0.00     0.128 A 
ENDBRANCH  17  18
ENDBRANCH  11  12
ENDBRANCH   9  11
ENDBRANCH   3   7
BRANCH   4  24
HETATM   24  O   UNL     1       2.599   9.672  18.643  0.00  0.00    -0.360 OA
HETATM   25  H   UNL     1       2.885   9.622  19.583  0.00  0.00     0.217 HD
ENDBRANCH   4  24
BRANCH   1  26
HETATM   26  C   UNL     1       1.882   4.369  16.725  0.00  0.00     0.172 A 
HETATM   27  N   UNL     1       2.099   3.203  17.423  0.00  0.00    -0.244 N 
HETATM   28  C   UNL     1       1.995   2.183  16.495  0.00  0.00     0.349 A 
HETATM   29  O   UNL     1       2.158   0.980  16.631  0.00  0.00    -0.245 OA
HETATM   30  N   UNL     1       1.630   2.804  15.310  0.00  0.00    -0.226 N 
HETATM   31  H   UNL     1       1.456   2.350  14.425  0.00  0.00     0.194 HD
HETATM   32  N   UNL     1       1.580   4.151  15.466  0.00  0.00    -0.151 NA
BRANCH  27  33
HETATM   33  C   UNL     1       2.470   2.981  18.757  0.00  0.00     0.051 C 
HETATM   34  C   UNL     1       1.546   3.013  19.817  0.00  0.00    -0.035 C 
HETATM   35  C   UNL     1       0.066   2.889  19.587  0.00  0.00     0.050 C 
HETATM   36  C   UNL     1       2.038   3.046  21.133  0.00  0.00     0.009 C 
HETATM   37  C   UNL     1       3.409   2.974  21.386  0.00  0.00     0.001 C 
HETATM   38  C   UNL     1       4.307   2.792  20.341  0.00  0.00     0.002 C 
HETATM   39  C   UNL     1       3.838   2.796  19.027  0.00  0.00     0.031 C 
ENDBRANCH  27  33
ENDBRANCH   1  26
BRANCH   6  40
HETATM   40  O   UNL     1      -0.382   6.327  17.231  0.00  0.00    -0.360 OA
HETATM   41  H   UNL     1      -0.946   6.838  17.834  0.00  0.00     0.217 HD
ENDBRANCH   6  40
TORSDOF 8
ENDMDL
MODEL 2
REMARK VINA RESULT:    -8.848      2.884      5.886
REMARK INTER + INTRA:         -14.965
REMARK INTER:                 -12.403
REMARK INTRA:                  -2.562
REMARK UNBOUND:                -2.495
REMARK  8 active torsions:
REMARK  status: ('A' for Active; 'I' for Inactive)
REMARK    1  A    between atoms: C_7  and  N_8 
REMARK    2  A    between atoms: C_14  and  C_15 
REMARK    3  A    between atoms: C_17  and  C_18 
REMARK       I    between atoms: C_18  and  N_20 
REMARK    4  A    between atoms: N_20  and  C_22 
REMARK    5  A    between atoms: C_22  and  C_23 
REMARK    6  A    between atoms: C_28  and  C_29 
REMARK    7  A    between atoms: C_35  and  O_36 
REMARK    8  A    between atoms: C_38  and  O_39 
ROOT
HETATM    1  C   UNL     1       4.707   5.275  21.433  0.00  0.00     0.046 C 
HETATM    2  C   UNL     1       4.290   5.602  22.740  0.00  0.00     0.038 C 
HETATM    3  C   UNL     1       3.480   4.769  23.520  0.00  0.00     0.066 C 
HETATM    4  C   UNL     1       3.042   3.573  22.949  0.00  0.00     0.084 C 
HETATM    5  C   UNL     1       3.469   3.195  21.677  0.00  0.00     0.075 C 
HETATM    6  C   UNL     1       4.353   4.012  20.959  0.00  0.00     0.082 C 
ENDROOT
BRANCH   3   7
HETATM    7  C   UNL     1       3.261   5.037  24.977  0.00  0.00     0.256 C 
HETATM    8  O   UNL     1       3.495   4.099  25.743  0.00  0.00    -0.267 OA
HETATM    9  N   UNL     1       2.867   6.297  25.441  0.00  0.00    -0.348 N 
HETATM   10  C   UNL     1       3.032   6.588  26.861  0.00  0.00     0.153 C 
BRANCH   9  11
HETATM   11  C   UNL     1       1.964   7.172  24.689  0.00  0.00     0.165 C 
BRANCH  11  12
HETATM   12  C   UNL     1       2.490   8.543  24.284  0.00  0.00    -0.029 A 
HETATM   13  C   UNL     1       3.590   8.639  23.398  0.00  0.00     0.010 A 
HETATM   14  C   UNL     1       4.197   9.857  23.106  0.00  0.00     0.001 A 
HETATM   15  C   UNL     1       3.708  11.015  23.681  0.00  0.00     0.001 A 
HETATM   16  C   UNL     1       2.578  10.958  24.500  0.00  0.00     0.013 A 
HETATM   17  C   UNL     1       1.931   9.740  24.820  0.00  0.00    -0.017 A 
BRANCH  17  18
HETATM   18  C   UNL     1       0.752   9.777  25.733  0.00  0.00    -0.008 A 
HETATM   19  C   UNL     1      -0.478  10.315  25.322  0.00  0.00     0.015 A 
HETATM   20  C   UNL     1      -1.548  10.430  26.210  0.00  0.00     0.020 A 
HETATM   21  C   UNL     1      -1.366  10.017  27.516  0.00  0.00     0.116 A 
HETATM   22  N   UNL     1      -0.239   9.425  27.948  0.00  0.00    -0.272 NA
HETATM   23  C   UNL     1       0.760   9.285  27.041  0.00  0.00     0.128 A 
ENDBRANCH  17  18
ENDBRANCH  11  12
ENDBRANCH   9  11
ENDBRANCH   3   7
BRANCH   4  24
HETATM   24  O   UNL     1       2.242   2.678  23.610  0.00  0.00    -0.360 OA
HETATM   25  H   UNL     1       1.791   3.162  24.338  0.00  0.00     0.217 HD
ENDBRANCH   4  24
BRANCH   1  26
HETATM   26  C   UNL     1       5.568   6.310  20.772  0.00  0.00     0.172 A 
HETATM   27  N   UNL     1       5.308   7.047  19.639  0.00  0.00    -0.244 N 
HETATM   28  C   UNL     1       6.449   7.790  19.402  0.00  0.00     0.349 A 
HETATM   29  O   UNL     1       6.711   8.554  18.485  0.00  0.00    -0.245 OA
HETATM   30  N   UNL     1       7.291   7.516  20.470  0.00  0.00    -0.226 N 
HETATM   31  H   UNL     1       8.211   7.903  20.621  0.00  0.00     0.194 HD
HETATM   32  N   UNL     1       6.740   6.591  21.294  0.00  0.00    -0.151 NA
BRANCH  27  33
HETATM   33  C   UNL     1       4.210   7.040  18.767  0.00  0.00     0.051 C 
HETATM   34  C   UNL     1       3.155   7.965  18.865  0.00  0.00    -0.035 C 
HETATM   35  C   UNL     1       3.295   9.252  19.630  0.00  0.00     0.050 C 
HETATM   36  C   UNL     1       1.982   7.724  18.131  0.00  0.00     0.009 C 
HETATM   37  C   UNL     1       1.892   6.633  17.266  0.00  0.00     0.001 C 
HETATM   38  C   UNL     1       2.991   5.808  17.060  0.00  0.00     0.002 C 
HETATM   39  C   UNL     1       4.150   6.011  17.810  0.00  0.00     0.031 C 
ENDBRANCH  27  33
ENDBRANCH   1  26
BRANCH   6  40
HETATM   40  O   UNL     1       4.956   3.479  19.861  0.00  0.00    -0.360 OA
HETATM   41  H   UNL     1       4.967   4.121  19.133  0.00  0.00     0.217 HD
ENDBRANCH   6  40
TORSDOF 8
ENDMDL
MODEL 3
REMARK VINA RESULT:    -8.785      2.612      6.951
REMARK INTER + INTRA:         -14.876
REMARK INTER:                 -10.779
REMARK INTRA:                  -4.097
REMARK UNBOUND:                -2.495
REMARK  8 active torsions:
REMARK  status: ('A' for Active; 'I' for Inactive)
REMARK    1  A    between atoms: C_7  and  N_8 
REMARK    2  A    between atoms: C_14  and  C_15 
REMARK    3  A    between atoms: C_17  and  C_18 
REMARK       I    between atoms: C_18  and  N_20 
REMARK    4  A    between atoms: N_20  and  C_22 
REMARK    5  A    between atoms: C_22  and  C_23 
REMARK    6  A    between atoms: C_28  and  C_29 
REMARK    7  A    between atoms: C_35  and  O_36 
REMARK    8  A    between atoms: C_38  and  O_39 
ROOT
HETATM    1  C   UNL     1       4.495   7.057  22.317  0.00  0.00     0.046 C 
HETATM    2  C   UNL     1       3.595   7.512  21.331  0.00  0.00     0.038 C 
HETATM    3  C   UNL     1       3.994   7.908  20.049  0.00  0.00     0.066 C 
HETATM    4  C   UNL     1       5.360   7.879  19.758  0.00  0.00     0.084 C 
HETATM    5  C   UNL     1       6.274   7.392  20.692  0.00  0.00     0.075 C 
HETATM    6  C   UNL     1       5.829   6.920  21.935  0.00  0.00     0.082 C 
ENDROOT
BRANCH   3   7
HETATM    7  C   UNL     1       2.994   8.152  18.962  0.00  0.00     0.256 C 
HETATM    8  O   UNL     1       2.840   9.327  18.620  0.00  0.00    -0.267 OA
HETATM    9  N   UNL     1       2.318   7.099  18.335  0.00  0.00    -0.348 N 
HETATM   10  C   UNL     1       1.657   7.369  17.064  0.00  0.00     0.153 C 
BRANCH   9  11
HETATM   11  C   UNL     1       1.912   5.884  19.046  0.00  0.00     0.165 C 
BRANCH  11  12
HETATM   12  C   UNL     1       2.757   4.633  18.836  0.00  0.00    -0.029 A 
HETATM   13  C   UNL     1       4.162   4.701  18.995  0.00  0.00     0.010 A 
HETATM   14  C   UNL     1       4.992   3.628  18.681  0.00  0.00     0.001 A 
HETATM   15  C   UNL     1       4.435   2.452  18.214  0.00  0.00     0.001 A 
HETATM   16  C   UNL     1       3.047   2.333  18.118  0.00  0.00     0.013 A 
HETATM   17  C   UNL     1       2.168   3.399  18.429  0.00  0.00    -0.017 A 
BRANCH  17  18
HETATM   18  C   UNL     1       0.702   3.188  18.260  0.00  0.00    -0.008 A 
HETATM   19  C   UNL     1      -0.107   2.770  19.329  0.00  0.00     0.015 A 
HETATM   20  C   UNL     1      -1.460   2.486  19.141  0.00  0.00     0.020 A 
HETATM   21  C   UNL     1      -1.988   2.608  17.870  0.00  0.00     0.116 A 
HETATM   22  N   UNL     1      -1.283   3.076  16.824  0.00  0.00    -0.272 NA
HETATM   23  C   UNL     1       0.016   3.390  17.059  0.00  0.00     0.128 A 
ENDBRANCH  17  18
ENDBRANCH  11  12
ENDBRANCH   9  11
ENDBRANCH   3   7
BRANCH   4  24
HETATM   24  O   UNL     1       5.873   8.246  18.542  0.00  0.00    -0.360 OA
HETATM   25  H   UNL     1       5.958   9.226  18.538  0.00  0.00     0.217 HD
ENDBRANCH   4  24
BRANCH   1  26
HETATM   26  C   UNL     1       3.858   6.686  23.623  0.00  0.00     0.172 A 
HETATM   27  N   UNL     1       3.533   5.435  24.095  0.00  0.00    -0.244 N 
HETATM   28  C   UNL     1       2.893   5.641  25.303  0.00  0.00     0.349 A 
HETATM   29  O   UNL     1       2.380   4.836  26.065  0.00  0.00    -0.245 OA
HETATM   30  N   UNL     1       2.958   7.009  25.520  0.00  0.00    -0.226 N 
HETATM   31  H   UNL     1       2.595   7.506  26.321  0.00  0.00     0.194 HD
HETATM   32  N   UNL     1       3.541   7.638  24.470  0.00  0.00    -0.151 NA
BRANCH  27  33
HETATM   33  C   UNL     1       3.665   4.166  23.511  0.00  0.00     0.051 C 
HETATM   34  C   UNL     1       4.795   3.354  23.707  0.00  0.00    -0.035 C 
HETATM   35  C   UNL     1       5.754   3.585  24.842  0.00  0.00     0.050 C 
HETATM   36  C   UNL     1       4.963   2.229  22.883  0.00  0.00     0.009 C 
HETATM   37  C   UNL     1       3.992   1.882  21.942  0.00  0.00     0.001 C 
HETATM   38  C   UNL     1       2.808   2.603  21.856  0.00  0.00     0.002 C 
HETATM   39  C   UNL     1       2.644   3.745  22.640  0.00  0.00     0.031 C 
ENDBRANCH  27  33
ENDBRANCH   1  26
BRANCH   6  40
HETATM   40  O   UNL     1       6.707   6.205  22.690  0.00  0.00    -0.360 OA
HETATM   41  H   UNL     1       6.786   6.591  23.578  0.00  0.00     0.217 HD
ENDBRANCH   6  40
TORSDOF 8
ENDMDL
MODEL 4
REMARK VINA RESULT:    -8.784      4.053      6.992
REMARK INTER + INTRA:         -14.874
REMARK INTER:                 -11.639
REMARK INTRA:                  -3.234
REMARK UNBOUND:                -2.495
REMARK  8 active torsions:
REMARK  status: ('A' for Active; 'I' for Inactive)
REMARK    1  A    between atoms: C_7  and  N_8 
REMARK    2  A    between atoms: C_14  and  C_15 
REMARK    3  A    between atoms: C_17  and  C_18 
REMARK       I    between atoms: C_18  and  N_20 
REMARK    4  A    between atoms: N_20  and  C_22 
REMARK    5  A    between atoms: C_22  and  C_23 
REMARK    6  A    between atoms: C_28  and  C_29 
REMARK    7  A    between atoms: C_35  and  O_36 
REMARK    8  A    between atoms: C_38  and  O_39 
ROOT
HETATM    1  C   UNL     1       3.693   5.975  23.704  0.00  0.00     0.046 C 
HETATM    2  C   UNL     1       2.624   6.892  23.786  0.00  0.00     0.038 C 
HETATM    3  C   UNL     1       2.425   7.746  24.877  0.00  0.00     0.066 C 
HETATM    4  C   UNL     1       3.316   7.647  25.948  0.00  0.00     0.084 C 
HETATM    5  C   UNL     1       4.410   6.784  25.884  0.00  0.00     0.075 C 
HETATM    6  C   UNL     1       4.630   6.010  24.736  0.00  0.00     0.082 C 
ENDROOT
BRANCH   3   7
HETATM    7  C   UNL     1       1.430   8.864  24.821  0.00  0.00     0.256 C 
HETATM    8  O   UNL     1       1.892   9.993  24.646  0.00  0.00    -0.267 OA
HETATM    9  N   UNL     1       0.053   8.627  24.908  0.00  0.00    -0.348 N 
HETATM   10  C   UNL     1      -0.852   9.687  24.480  0.00  0.00     0.153 C 
BRANCH   9  11
HETATM   11  C   UNL     1      -0.518   7.567  25.743  0.00  0.00     0.165 C 
BRANCH  11  12
HETATM   12  C   UNL     1      -0.232   7.620  27.238  0.00  0.00    -0.029 A 
HETATM   13  C   UNL     1      -0.333   8.852  27.928  0.00  0.00     0.010 A 
HETATM   14  C   UNL     1       0.051   8.985  29.259  0.00  0.00     0.001 A 
HETATM   15  C   UNL     1       0.532   7.883  29.941  0.00  0.00     0.001 A 
HETATM   16  C   UNL     1       0.572   6.639  29.307  0.00  0.00     0.013 A 
HETATM   17  C   UNL     1       0.190   6.462  27.955  0.00  0.00    -0.017 A 
BRANCH  17  18
HETATM   18  C   UNL     1       0.303   5.102  27.354  0.00  0.00    -0.008 A 
HETATM   19  C   UNL     1      -0.813   4.257  27.235  0.00  0.00     0.015 A 
HETATM   20  C   UNL     1      -0.683   2.953  26.756  0.00  0.00     0.020 A 
HETATM   21  C   UNL     1       0.578   2.500  26.417  0.00  0.00     0.116 A 
HETATM   22  N   UNL     1       1.670   3.284  26.437  0.00  0.00    -0.272 NA
HETATM   23  C   UNL     1       1.493   4.562  26.859  0.00  0.00     0.128 A 
ENDBRANCH  17  18
ENDBRANCH  11  12
ENDBRANCH   9  11
ENDBRANCH   3   7
BRANCH   4  24
HETATM   24  O   UNL     1       3.222   8.424  27.073  0.00  0.00    -0.360 OA
HETATM   25  H   UNL     1       2.661   9.201  26.852  0.00  0.00     0.217 HD
ENDBRANCH   4  24
BRANCH   1  26
HETATM   26  C   UNL     1       3.719   5.154  22.450  0.00  0.00     0.172 A 
HETATM   27  N   UNL     1       4.396   5.401  21.276  0.00  0.00    -0.244 N 
HETATM   28  C   UNL     1       4.021   4.395  20.406  0.00  0.00     0.349 A 
HETATM   29  O   UNL     1       4.321   4.219  19.234  0.00  0.00    -0.245 OA
HETATM   30  N   UNL     1       3.208   3.553  21.150  0.00  0.00    -0.226 N 
HETATM   31  H   UNL     1       2.768   2.704  20.825  0.00  0.00     0.194 HD
HETATM   32  N   UNL     1       3.020   4.044  22.401  0.00  0.00    -0.151 NA
BRANCH  27  33
HETATM   33  C   UNL     1       5.217   6.471  20.893  0.00  0.00     0.051 C 
HETATM   34  C   UNL     1       4.783   7.490  20.026  0.00  0.00    -0.035 C 
HETATM   35  C   UNL     1       3.325   7.740  19.760  0.00  0.00     0.050 C 
HETATM   36  C   UNL     1       5.741   8.365  19.489  0.00  0.00     0.009 C 
HETATM   37  C   UNL     1       7.082   8.275  19.865  0.00  0.00     0.001 C 
HETATM   38  C   UNL     1       7.480   7.362  20.834  0.00  0.00     0.002 C 
HETATM   39  C   UNL     1       6.548   6.460  21.348  0.00  0.00     0.031 C 
ENDBRANCH  27  33
ENDBRANCH   1  26
BRANCH   6  40
HETATM   40  O   UNL     1       5.842   5.405  24.605  0.00  0.00    -0.360 OA
HETATM   41  H   UNL     1       5.742   4.519  24.222  0.00  0.00     0.217 HD
ENDBRANCH   6  40
TORSDOF 8
ENDMDL
MODEL 5
REMARK VINA RESULT:    -8.687      3.383      5.934
REMARK INTER + INTRA:         -14.738
REMARK INTER:                 -12.583
REMARK INTRA:                  -2.155
REMARK UNBOUND:                -2.495
REMARK  8 active torsions:
REMARK  status: ('A' for Active; 'I' for Inactive)
REMARK    1  A    between atoms: C_7  and  N_8 
REMARK    2  A    between atoms: C_14  and  C_15 
REMARK    3  A    between atoms: C_17  and  C_18 
REMARK       I    between atoms: C_18  and  N_20 
REMARK    4  A    between atoms: N_20  and  C_22 
REMARK    5  A    between atoms: C_22  and  C_23 
REMARK    6  A    between atoms: C_28  and  C_29 
REMARK    7  A    between atoms: C_35  and  O_36 
REMARK    8  A    between atoms: C_38  and  O_39 
ROOT
HETATM    1  C   UNL     1       2.915   5.009  22.189  0.00  0.00     0.046 C 
HETATM    2  C   UNL     1       2.975   6.316  22.715  0.00  0.00     0.038 C 
HETATM    3  C   UNL     1       2.966   6.595  24.087  0.00  0.00     0.066 C 
HETATM    4  C   UNL     1       2.855   5.516  24.966  0.00  0.00     0.084 C 
HETATM    5  C   UNL     1       2.839   4.206  24.485  0.00  0.00     0.075 C 
HETATM    6  C   UNL     1       2.941   3.961  23.108  0.00  0.00     0.082 C 
ENDROOT
BRANCH   3   7
HETATM    7  C   UNL     1       3.273   7.966  24.606  0.00  0.00     0.256 C 
HETATM    8  O   UNL     1       4.438   8.165  24.957  0.00  0.00    -0.267 OA
HETATM    9  N   UNL     1       2.302   8.974  24.636  0.00  0.00    -0.348 N 
HETATM   10  C   UNL     1       2.751  10.352  24.795  0.00  0.00     0.153 C 
BRANCH   9  11
HETATM   11  C   UNL     1       0.888   8.704  24.905  0.00  0.00     0.165 C 
BRANCH  11  12
HETATM   12  C   UNL     1       0.320   9.191  26.233  0.00  0.00    -0.029 A 
HETATM   13  C   UNL     1       0.683   8.534  27.433  0.00  0.00     0.010 A 
HETATM   14  C   UNL     1       0.089   8.846  28.652  0.00  0.00     0.001 A 
HETATM   15  C   UNL     1      -0.875   9.836  28.705  0.00  0.00     0.001 A 
HETATM   16  C   UNL     1      -1.198  10.550  27.549  0.00  0.00     0.013 A 
HETATM   17  C   UNL     1      -0.616  10.265  26.291  0.00  0.00    -0.017 A 
BRANCH  17  18
HETATM   18  C   UNL     1      -1.053  11.058  25.106  0.00  0.00    -0.008 A 
HETATM   19  C   UNL     1      -0.322  12.170  24.657  0.00  0.00     0.015 A 
HETATM   20  C   UNL     1      -0.786  12.961  23.606  0.00  0.00     0.020 A 
HETATM   21  C   UNL     1      -1.996  12.638  23.023  0.00  0.00     0.116 A 
HETATM   22  N   UNL     1      -2.702  11.543  23.358  0.00  0.00    -0.272 NA
HETATM   23  C   UNL     1      -2.192  10.771  24.349  0.00  0.00     0.128 A 
ENDBRANCH  17  18
ENDBRANCH  11  12
ENDBRANCH   9  11
ENDBRANCH   3   7
BRANCH   4  24
HETATM   24  O   UNL     1       2.831   5.661  26.328  0.00  0.00    -0.360 OA
HETATM   25  H   UNL     1       3.012   4.779  26.725  0.00  0.00     0.217 HD
ENDBRANCH   4  24
BRANCH   1  26
HETATM   26  C   UNL     1       2.934   4.934  20.692  0.00  0.00     0.172 A 
HETATM   27  N   UNL     1       3.764   5.588  19.810  0.00  0.00    -0.244 N 
HETATM   28  C   UNL     1       3.317   5.248  18.547  0.00  0.00     0.349 A 
HETATM   29  O   UNL     1       3.706   5.621  17.451  0.00  0.00    -0.245 OA
HETATM   30  N   UNL     1       2.296   4.332  18.756  0.00  0.00    -0.226 N 
HETATM   31  H   UNL     1       1.754   3.868  18.043  0.00  0.00     0.194 HD
HETATM   32  N   UNL     1       2.063   4.164  20.082  0.00  0.00    -0.151 NA
BRANCH  27  33
HETATM   33  C   UNL     1       4.794   6.514  20.028  0.00  0.00     0.051 C 
HETATM   34  C   UNL     1       4.703   7.860  19.630  0.00  0.00    -0.035 C 
HETATM   35  C   UNL     1       3.384   8.507  19.311  0.00  0.00     0.050 C 
HETATM   36  C   UNL     1       5.869   8.643  19.645  0.00  0.00     0.009 C 
HETATM   37  C   UNL     1       7.075   8.121  20.114  0.00  0.00     0.001 C 
HETATM   38  C   UNL     1       7.125   6.838  20.645  0.00  0.00     0.002 C 
HETATM   39  C   UNL     1       5.986   6.035  20.602  0.00  0.00     0.031 C 
ENDBRANCH  27  33
ENDBRANCH   1  26
BRANCH   6  40
HETATM   40  O   UNL     1       3.202   2.685  22.713  0.00  0.00    -0.360 OA
HETATM   41  H   UNL     1       3.308   2.104  23.483  0.00  0.00     0.217 HD
ENDBRANCH   6  40
TORSDOF 8
ENDMDL
MODEL 6
REMARK VINA RESULT:    -8.662      2.857      7.716
REMARK INTER + INTRA:         -14.702
REMARK INTER:                 -11.324
REMARK INTRA:                  -3.378
REMARK UNBOUND:                -2.495
REMARK  8 active torsions:
REMARK  status: ('A' for Active; 'I' for Inactive)
REMARK    1  A    between atoms: C_7  and  N_8 
REMARK    2  A    between atoms: C_14  and  C_15 
REMARK    3  A    between atoms: C_17  and  C_18 
REMARK       I    between atoms: C_18  and  N_20 
REMARK    4  A    between atoms: N_20  and  C_22 
REMARK    5  A    between atoms: C_22  and  C_23 
REMARK    6  A    between atoms: C_28  and  C_29 
REMARK    7  A    between atoms: C_35  and  O_36 
REMARK    8  A    between atoms: C_38  and  O_39 
ROOT
HETATM    1  C   UNL     1       3.956   7.063  23.827  0.00  0.00     0.046 C 
HETATM    2  C   UNL     1       3.439   6.282  22.772  0.00  0.00     0.038 C 
HETATM    3  C   UNL     1       3.845   4.967  22.518  0.00  0.00     0.066 C 
HETATM    4  C   UNL     1       4.839   4.427  23.336  0.00  0.00     0.084 C 
HETATM    5  C   UNL     1       5.342   5.152  24.416  0.00  0.00     0.075 C 
HETATM    6  C   UNL     1       4.847   6.434  24.695  0.00  0.00     0.082 C 
ENDROOT
BRANCH   3   7
HETATM    7  C   UNL     1       3.106   4.096  21.550  0.00  0.00     0.256 C 
HETATM    8  O   UNL     1       2.256   3.346  22.035  0.00  0.00    -0.267 OA
HETATM    9  N   UNL     1       3.332   4.174  20.171  0.00  0.00    -0.348 N 
HETATM   10  C   UNL     1       2.339   3.585  19.280  0.00  0.00     0.153 C 
BRANCH   9  11
HETATM   11  C   UNL     1       4.651   4.452  19.599  0.00  0.00     0.165 C 
BRANCH  11  12
HETATM   12  C   UNL     1       5.176   5.879  19.703  0.00  0.00    -0.029 A 
HETATM   13  C   UNL     1       6.341   6.143  20.462  0.00  0.00     0.010 A 
HETATM   14  C   UNL     1       6.783   7.441  20.705  0.00  0.00     0.001 A 
HETATM   15  C   UNL     1       6.078   8.508  20.181  0.00  0.00     0.001 A 
HETATM   16  C   UNL     1       4.967   8.272  19.367  0.00  0.00     0.013 A 
HETATM   17  C   UNL     1       4.487   6.969  19.095  0.00  0.00    -0.017 A 
BRANCH  17  18
HETATM   18  C   UNL     1       3.271   6.820  18.244  0.00  0.00    -0.008 A 
HETATM   19  C   UNL     1       2.001   7.199  18.707  0.00  0.00     0.015 A 
HETATM   20  C   UNL     1       0.857   6.973  17.941  0.00  0.00     0.020 A 
HETATM   21  C   UNL     1       0.998   6.346  16.717  0.00  0.00     0.116 A 
HETATM   22  N   UNL     1       2.193   6.029  16.189  0.00  0.00    -0.272 NA
HETATM   23  C   UNL     1       3.285   6.313  16.942  0.00  0.00     0.128 A 
ENDBRANCH  17  18
ENDBRANCH  11  12
ENDBRANCH   9  11
ENDBRANCH   3   7
BRANCH   4  24
HETATM   24  O   UNL     1       5.323   3.154  23.184  0.00  0.00    -0.360 OA
HETATM   25  H   UNL     1       5.997   3.175  22.468  0.00  0.00     0.217 HD
ENDBRANCH   4  24
BRANCH   1  26
HETATM   26  C   UNL     1       3.386   8.447  23.919  0.00  0.00     0.172 A 
HETATM   27  N   UNL     1       2.298   8.881  24.642  0.00  0.00    -0.244 N 
HETATM   28  C   UNL     1       2.139  10.215  24.320  0.00  0.00     0.349 A 
HETATM   29  O   UNL     1       1.280  11.010  24.673  0.00  0.00    -0.245 OA
HETATM   30  N   UNL     1       3.206  10.520  23.488  0.00  0.00    -0.226 N 
HETATM   31  H   UNL     1       3.405  11.419  23.074  0.00  0.00     0.194 HD
HETATM   32  N   UNL     1       3.954   9.416  23.239  0.00  0.00    -0.151 NA
BRANCH  27  33
HETATM   33  C   UNL     1       1.401   8.185  25.465  0.00  0.00     0.051 C 
HETATM   34  C   UNL     1       1.659   7.924  26.822  0.00  0.00    -0.035 C 
HETATM   35  C   UNL     1       2.697   8.689  27.595  0.00  0.00     0.050 C 
HETATM   36  C   UNL     1       0.840   7.002  27.495  0.00  0.00     0.009 C 
HETATM   37  C   UNL     1      -0.251   6.414  26.853  0.00  0.00     0.001 C 
HETATM   38  C   UNL     1      -0.589   6.788  25.558  0.00  0.00     0.002 C 
HETATM   39  C   UNL     1       0.236   7.673  24.864  0.00  0.00     0.031 C 
ENDBRANCH  27  33
ENDBRANCH   1  26
BRANCH   6  40
HETATM   40  O   UNL     1       5.157   6.981  25.902  0.00  0.00    -0.360 OA
HETATM   41  H   UNL     1       4.843   6.414  26.625  0.00  0.00     0.217 HD
ENDBRANCH   6  40
TORSDOF 8
ENDMDL
MODEL 7
REMARK VINA RESULT:    -8.595      2.113      3.582
REMARK INTER + INTRA:         -14.607
REMARK INTER:                 -12.112
REMARK INTRA:                  -2.495
REMARK UNBOUND:                -2.495
REMARK  8 active torsions:
REMARK  status: ('A' for Active; 'I' for Inactive)
REMARK    1  A    between atoms: C_7  and  N_8 
REMARK    2  A    between atoms: C_14  and  C_15 
REMARK    3  A    between atoms: C_17  and  C_18 
REMARK       I    between atoms: C_18  and  N_20 
REMARK    4  A    between atoms: N_20  and  C_22 
REMARK    5  A    between atoms: C_22  and  C_23 
REMARK    6  A    between atoms: C_28  and  C_29 
REMARK    7  A    between atoms: C_35  and  O_36 
REMARK    8  A    between atoms: C_38  and  O_39 
ROOT
HETATM    1  C   UNL     1       1.634   5.596  18.305  0.00  0.00     0.046 C 
HETATM    2  C   UNL     1       2.703   5.196  19.134  0.00  0.00     0.038 C 
HETATM    3  C   UNL     1       3.880   5.938  19.284  0.00  0.00     0.066 C 
HETATM    4  C   UNL     1       4.002   7.115  18.542  0.00  0.00     0.084 C 
HETATM    5  C   UNL     1       2.949   7.566  17.747  0.00  0.00     0.075 C 
HETATM    6  C   UNL     1       1.749   6.842  17.690  0.00  0.00     0.082 C 
ENDROOT
BRANCH   3   7
HETATM    7  C   UNL     1       4.880   5.607  20.348  0.00  0.00     0.256 C 
HETATM    8  O   UNL     1       5.704   4.735  20.065  0.00  0.00    -0.267 OA
HETATM    9  N   UNL     1       4.907   6.290  21.570  0.00  0.00    -0.348 N 
HETATM   10  C   UNL     1       6.108   6.181  22.389  0.00  0.00     0.153 C 
BRANCH   9  11
HETATM   11  C   UNL     1       3.694   6.771  22.235  0.00  0.00     0.165 C 
BRANCH  11  12
HETATM   12  C   UNL     1       3.671   8.226  22.688  0.00  0.00    -0.029 A 
HETATM   13  C   UNL     1       4.279   9.220  21.884  0.00  0.00     0.010 A 
HETATM   14  C   UNL     1       4.409  10.537  22.313  0.00  0.00     0.001 A 
HETATM   15  C   UNL     1       3.919  10.899  23.554  0.00  0.00     0.001 A 
HETATM   16  C   UNL     1       3.248   9.955  24.336  0.00  0.00     0.013 A 
HETATM   17  C   UNL     1       3.094   8.606  23.935  0.00  0.00    -0.017 A 
BRANCH  17  18
HETATM   18  C   UNL     1       2.395   7.664  24.855  0.00  0.00    -0.008 A 
HETATM   19  C   UNL     1       0.994   7.608  24.922  0.00  0.00     0.015 A 
HETATM   20  C   UNL     1       0.348   6.790  25.850  0.00  0.00     0.020 A 
HETATM   21  C   UNL     1       1.120   6.045  26.720  0.00  0.00     0.116 A 
HETATM   22  N   UNL     1       2.463   5.999  26.654  0.00  0.00    -0.272 NA
HETATM   23  C   UNL     1       3.051   6.769  25.704  0.00  0.00     0.128 A 
ENDBRANCH  17  18
ENDBRANCH  11  12
ENDBRANCH   9  11
ENDBRANCH   3   7
BRANCH   4  24
HETATM   24  O   UNL     1       5.107   7.924  18.600  0.00  0.00    -0.360 OA
HETATM   25  H   UNL     1       5.887   7.381  18.349  0.00  0.00     0.217 HD
ENDBRANCH   4  24
BRANCH   1  26
HETATM   26  C   UNL     1       0.469   4.653  18.286  0.00  0.00     0.172 A 
HETATM   27  N   UNL     1       0.389   3.399  17.723  0.00  0.00    -0.244 N 
HETATM   28  C   UNL     1      -0.919   2.988  17.903  0.00  0.00     0.349 A 
HETATM   29  O   UNL     1      -1.478   1.967  17.530  0.00  0.00    -0.245 OA
HETATM   30  N   UNL     1      -1.518   3.992  18.649  0.00  0.00    -0.226 N 
HETATM   31  H   UNL     1      -2.475   4.009  18.970  0.00  0.00     0.194 HD
HETATM   32  N   UNL     1      -0.654   5.016  18.861  0.00  0.00    -0.151 NA
BRANCH  27  33
HETATM   33  C   UNL     1       1.327   2.653  16.996  0.00  0.00     0.051 C 
HETATM   34  C   UNL     1       1.436   2.727  15.596  0.00  0.00    -0.035 C 
HETATM   35  C   UNL     1       0.855   3.871  14.812  0.00  0.00     0.050 C 
HETATM   36  C   UNL     1       2.210   1.760  14.932  0.00  0.00     0.009 C 
HETATM   37  C   UNL     1       2.915   0.793  15.651  0.00  0.00     0.001 C 
HETATM   38  C   UNL     1       2.922   0.817  17.040  0.00  0.00     0.002 C 
HETATM   39  C   UNL     1       2.129   1.746  17.712  0.00  0.00     0.031 C 
ENDBRANCH  27  33
ENDBRANCH   1  26
BRANCH   6  40
HETATM   40  O   UNL     1       0.668   7.456  17.136  0.00  0.00    -0.360 OA
HETATM   41  H   UNL     1       0.944   8.067  16.434  0.00  0.00     0.217 HD
ENDBRANCH   6  40
TORSDOF 8
ENDMDL
MODEL 8
REMARK VINA RESULT:    -8.551      3.217      7.904
REMARK INTER + INTRA:         -14.545
REMARK INTER:                 -11.606
REMARK INTRA:                  -2.939
REMARK UNBOUND:                -2.495
REMARK  8 active torsions:
REMARK  status: ('A' for Active; 'I' for Inactive)
REMARK    1  A    between atoms: C_7  and  N_8 
REMARK    2  A    between atoms: C_14  and  C_15 
REMARK    3  A    between atoms: C_17  and  C_18 
REMARK       I    between atoms: C_18  and  N_20 
REMARK    4  A    between atoms: N_20  and  C_22 
REMARK    5  A    between atoms: C_22  and  C_23 
REMARK    6  A    between atoms: C_28  and  C_29 
REMARK    7  A    between atoms: C_35  and  O_36 
REMARK    8  A    between atoms: C_38  and  O_39 
ROOT
HETATM    1  C   UNL     1       3.337   6.993  24.238  0.00  0.00     0.046 C 
HETATM    2  C   UNL     1       2.737   6.016  23.416  0.00  0.00     0.038 C 
HETATM    3  C   UNL     1       3.415   4.884  22.948  0.00  0.00     0.066 C 
HETATM    4  C   UNL     1       4.762   4.747  23.290  0.00  0.00     0.084 C 
HETATM    5  C   UNL     1       5.376   5.669  24.137  0.00  0.00     0.075 C 
HETATM    6  C   UNL     1       4.642   6.743  24.661  0.00  0.00     0.082 C 
ENDROOT
BRANCH   3   7
HETATM    7  C   UNL     1       2.684   3.757  22.285  0.00  0.00     0.256 C 
HETATM    8  O   UNL     1       2.497   2.752  22.975  0.00  0.00    -0.267 OA
HETATM    9  N   UNL     1       2.195   3.866  20.978  0.00  0.00    -0.348 N 
HETATM   10  C   UNL     1       1.194   2.902  20.539  0.00  0.00     0.153 C 
BRANCH   9  11
HETATM   11  C   UNL     1       2.892   4.618  19.932  0.00  0.00     0.165 C 
BRANCH  11  12
HETATM   12  C   UNL     1       2.077   5.624  19.129  0.00  0.00    -0.029 A 
HETATM   13  C   UNL     1       0.804   5.256  18.630  0.00  0.00     0.010 A 
HETATM   14  C   UNL     1       0.080   6.083  17.776  0.00  0.00     0.001 A 
HETATM   15  C   UNL     1       0.604   7.310  17.412  0.00  0.00     0.001 A 
HETATM   16  C   UNL     1       1.824   7.729  17.949  0.00  0.00     0.013 A 
HETATM   17  C   UNL     1       2.590   6.919  18.821  0.00  0.00    -0.017 A 
BRANCH  17  18
HETATM   18  C   UNL     1       3.898   7.439  19.314  0.00  0.00    -0.008 A 
HETATM   19  C   UNL     1       4.020   8.037  20.579  0.00  0.00     0.015 A 
HETATM   20  C   UNL     1       5.225   8.603  20.996  0.00  0.00     0.020 A 
HETATM   21  C   UNL     1       6.298   8.580  20.126  0.00  0.00     0.116 A 
HETATM   22  N   UNL     1       6.264   7.956  18.935  0.00  0.00    -0.272 NA
HETATM   23  C   UNL     1       5.089   7.372  18.588  0.00  0.00     0.128 A 
ENDBRANCH  17  18
ENDBRANCH  11  12
ENDBRANCH   9  11
ENDBRANCH   3   7
BRANCH   4  24
HETATM   24  O   UNL     1       5.531   3.687  22.889  0.00  0.00    -0.360 OA
HETATM   25  H   UNL     1       6.002   3.343  23.681  0.00  0.00     0.217 HD
ENDBRANCH   4  24
BRANCH   1  26
HETATM   26  C   UNL     1       2.435   8.126  24.624  0.00  0.00     0.172 A 
HETATM   27  N   UNL     1       1.454   8.152  25.590  0.00  0.00    -0.244 N 
HETATM   28  C   UNL     1       0.858   9.395  25.489  0.00  0.00     0.349 A 
HETATM   29  O   UNL     1      -0.092   9.861  26.102  0.00  0.00    -0.245 OA
HETATM   30  N   UNL     1       1.587  10.072  24.523  0.00  0.00    -0.226 N 
HETATM   31  H   UNL     1       1.429  11.018  24.208  0.00  0.00     0.194 HD
HETATM   32  N   UNL     1       2.543   9.271  23.991  0.00  0.00    -0.151 NA
BRANCH  27  33
HETATM   33  C   UNL     1       0.990   7.155  26.460  0.00  0.00     0.051 C 
HETATM   34  C   UNL     1       1.696   6.765  27.612  0.00  0.00    -0.035 C 
HETATM   35  C   UNL     1       2.770   7.626  28.217  0.00  0.00     0.050 C 
HETATM   36  C   UNL     1       1.301   5.590  28.274  0.00  0.00     0.009 C 
HETATM   37  C   UNL     1       0.187   4.868  27.844  0.00  0.00     0.001 C 
HETATM   38  C   UNL     1      -0.594   5.340  26.796  0.00  0.00     0.002 C 
HETATM   39  C   UNL     1      -0.193   6.483  26.104  0.00  0.00     0.031 C 
ENDBRANCH  27  33
ENDBRANCH   1  26
BRANCH   6  40
HETATM   40  O   UNL     1       5.195   7.444  25.689  0.00  0.00    -0.360 OA
HETATM   41  H   UNL     1       4.722   7.263  26.517  0.00  0.00     0.217 HD
ENDBRANCH   6  40
TORSDOF 8
ENDMDL
MODEL 9
REMARK VINA RESULT:    -8.473      3.601      8.169
REMARK INTER + INTRA:         -14.436
REMARK INTER:                 -11.885
REMARK INTRA:                  -2.552
REMARK UNBOUND:                -2.495
REMARK  8 active torsions:
REMARK  status: ('A' for Active; 'I' for Inactive)
REMARK    1  A    between atoms: C_7  and  N_8 
REMARK    2  A    between atoms: C_14  and  C_15 
REMARK    3  A    between atoms: C_17  and  C_18 
REMARK       I    between atoms: C_18  and  N_20 
REMARK    4  A    between atoms: N_20  and  C_22 
REMARK    5  A    between atoms: C_22  and  C_23 
REMARK    6  A    between atoms: C_28  and  C_29 
REMARK    7  A    between atoms: C_35  and  O_36 
REMARK    8  A    between atoms: C_38  and  O_39 
ROOT
HETATM    1  C   UNL     1       2.194   8.245  24.629  0.00  0.00     0.046 C 
HETATM    2  C   UNL     1       2.111   6.867  24.339  0.00  0.00     0.038 C 
HETATM    3  C   UNL     1       3.157   6.139  23.759  0.00  0.00     0.066 C 
HETATM    4  C   UNL     1       4.321   6.832  23.424  0.00  0.00     0.084 C 
HETATM    5  C   UNL     1       4.457   8.185  23.736  0.00  0.00     0.075 C 
HETATM    6  C   UNL     1       3.424   8.862  24.399  0.00  0.00     0.082 C 
ENDROOT
BRANCH   3   7
HETATM    7  C   UNL     1       3.120   4.643  23.690  0.00  0.00     0.256 C 
HETATM    8  O   UNL     1       3.316   4.046  24.751  0.00  0.00    -0.267 OA
HETATM    9  N   UNL     1       2.825   3.969  22.499  0.00  0.00    -0.348 N 
HETATM   10  C   UNL     1       2.445   2.564  22.583  0.00  0.00     0.153 C 
BRANCH   9  11
HETATM   11  C   UNL     1       3.243   4.464  21.185  0.00  0.00     0.165 C 
BRANCH  11  12
HETATM   12  C   UNL     1       2.167   5.058  20.284  0.00  0.00    -0.029 A 
HETATM   13  C   UNL     1       0.891   4.449  20.221  0.00  0.00     0.010 A 
HETATM   14  C   UNL     1      -0.079   4.865  19.314  0.00  0.00     0.001 A 
HETATM   15  C   UNL     1       0.197   5.913  18.455  0.00  0.00     0.001 A 
HETATM   16  C   UNL     1       1.421   6.579  18.547  0.00  0.00     0.013 A 
HETATM   17  C   UNL     1       2.434   6.188  19.456  0.00  0.00    -0.017 A 
BRANCH  17  18
HETATM   18  C   UNL     1       3.723   6.938  19.455  0.00  0.00    -0.008 A 
HETATM   19  C   UNL     1       3.911   8.075  20.256  0.00  0.00     0.015 A 
HETATM   20  C   UNL     1       5.086   8.825  20.181  0.00  0.00     0.020 A 
HETATM   21  C   UNL     1       6.059   8.433  19.283  0.00  0.00     0.116 A 
HETATM   22  N   UNL     1       5.969   7.312  18.545  0.00  0.00    -0.272 NA
HETATM   23  C   UNL     1       4.833   6.583  18.684  0.00  0.00     0.128 A 
ENDBRANCH  17  18
ENDBRANCH  11  12
ENDBRANCH   9  11
ENDBRANCH   3   7
BRANCH   4  24
HETATM   24  O   UNL     1       5.409   6.231  22.848  0.00  0.00    -0.360 OA
HETATM   25  H   UNL     1       6.205   6.503  23.359  0.00  0.00     0.217 HD
ENDBRANCH   4  24
BRANCH   1  26
HETATM   26  C   UNL     1       0.960   8.831  25.246  0.00  0.00     0.172 A 
HETATM   27  N   UNL     1       0.444   8.615  26.504  0.00  0.00    -0.244 N 
HETATM   28  C   UNL     1      -0.746   9.317  26.549  0.00  0.00     0.349 A 
HETATM   29  O   UNL     1      -1.582   9.388  27.438  0.00  0.00    -0.245 OA
HETATM   30  N   UNL     1      -0.820   9.987  25.336  0.00  0.00    -0.226 N 
HETATM   31  H   UNL     1      -1.561  10.606  25.039  0.00  0.00     0.194 HD
HETATM   32  N   UNL     1       0.230   9.664  24.541  0.00  0.00    -0.151 NA
BRANCH  27  33
HETATM   33  C   UNL     1       0.879   7.789  27.550  0.00  0.00     0.051 C 
HETATM   34  C   UNL     1       0.305   6.534  27.817  0.00  0.00    -0.035 C 
HETATM   35  C   UNL     1      -0.525   5.806  26.796  0.00  0.00     0.050 C 
HETATM   36  C   UNL     1       0.616   5.899  29.031  0.00  0.00     0.009 C 
HETATM   37  C   UNL     1       1.532   6.465  29.919  0.00  0.00     0.001 C 
HETATM   38  C   UNL     1       2.208   7.632  29.582  0.00  0.00     0.002 C 
HETATM   39  C   UNL     1       1.882   8.294  28.398  0.00  0.00     0.031 C 
ENDBRANCH  27  33
ENDBRANCH   1  26
BRANCH   6  40
HETATM   40  O   UNL     1       3.707  10.084  24.927  0.00  0.00    -0.360 OA
HETATM   41  H   UNL     1       3.429  10.126  25.857  0.00  0.00     0.217 HD
ENDBRANCH   6  40
TORSDOF 8
ENDMDL
