MODEL 1
REMARK VINA RESULT:    -7.659      0.000      0.000
REMARK INTER + INTRA:         -11.070
REMARK INTER:                 -10.059
REMARK INTRA:                  -1.010
REMARK UNBOUND:                -0.500
REMARK  7 active torsions:
REMARK  status: ('A' for Active; 'I' for Inactive)
REMARK    1  A    between atoms: C_2  and  C_4 
REMARK    2  A    between atoms: C_4  and  N_5 
REMARK       I    between atoms: N_5  and  C_7 
REMARK    3  A    between atoms: C_7  and  C_9 
REMARK    4  A    between atoms: C_16  and  C_20 
REMARK    5  A    between atoms: C_17  and  O_19 
REMARK       I    between atoms: C_20  and  N_22 
REMARK    6  A    between atoms: N_22  and  C_24 
REMARK    7  A    between atoms: C_27  and  N_30 
ROOT
HETATM    1  C   UNL     1       2.127   8.290  26.444  0.00  0.00     0.157 A 
HETATM    2  N   UNL     1       2.884   8.293  27.559  0.00  0.00    -0.168 NA
HETATM    3  N   UNL     1       3.899   7.456  27.286  0.00  0.00    -0.277 N 
HETATM    4  H   UNL     1       4.601   7.301  27.998  0.00  0.00     0.189 HD
HETATM    5  C   UNL     1       2.674   7.392  25.478  0.00  0.00     0.029 A 
HETATM    6  C   UNL     1       3.845   6.908  26.037  0.00  0.00     0.065 A 
HETATM    7  C   UNL     1       2.301   6.967  24.189  0.00  0.00     0.036 C 
HETATM    8  C   UNL     1       3.168   6.171  23.443  0.00  0.00     0.066 C 
HETATM    9  C   UNL     1       4.308   5.642  24.083  0.00  0.00     0.083 C 
HETATM   10  C   UNL     1       4.685   6.010  25.380  0.00  0.00     0.069 C 
ENDROOT
BRANCH   8  11
HETATM   11  C   UNL     1       2.847   5.777  22.042  0.00  0.00     0.260 C 
HETATM   12  O   UNL     1       2.302   4.672  21.973  0.00  0.00    -0.267 OA
HETATM   13  N   UNL     1       3.205   6.567  20.911  0.00  0.00    -0.318 N 
HETATM   14  C   UNL     1       4.134   7.708  20.931  0.00  0.00     0.159 C 
BRANCH  13  15
HETATM   15  C   UNL     1       2.875   6.078  19.585  0.00  0.00     0.037 A 
HETATM   16  C   UNL     1       2.055   6.801  18.720  0.00  0.00     0.032 A 
HETATM   17  C   UNL     1       1.645   6.267  17.492  0.00  0.00     0.031 A 
HETATM   18  C   UNL     1       2.040   4.997  17.057  0.00  0.00     0.030 A 
HETATM   19  C   UNL     1       2.949   4.325  17.876  0.00  0.00     0.031 A 
HETATM   20  C   UNL     1       3.361   4.850  19.113  0.00  0.00     0.032 A 
BRANCH  18  21
HETATM   21  N   UNL     1       1.538   4.452  15.897  0.00  0.00    -0.377 N 
HETATM   22  C   UNL     1       1.418   3.010  15.648  0.00  0.00     0.149 C 
HETATM   23  C   UNL     1      -0.040   2.647  15.326  0.00  0.00     0.187 C 
HETATM   24  O   UNL     1      -0.542   3.422  14.224  0.00  0.00    -0.388 OA
HETATM   25  C   UNL     1      -0.494   4.821  14.544  0.00  0.00     0.187 C 
HETATM   26  C   UNL     1       0.935   5.298  14.851  0.00  0.00     0.149 C 
ENDBRANCH  18  21
ENDBRANCH  13  15
ENDBRANCH   8  11
BRANCH   9  27
HETATM   27  O   UNL     1       5.104   4.677  23.515  0.00  0.00    -0.360 OA
HETATM   28  H   UNL     1       6.028   4.866  23.802  0.00  0.00     0.217 HD
ENDBRANCH   9  27
BRANCH   1  29
HETATM   29  C   UNL     1       0.896   9.094  26.245  0.00  0.00     0.274 C 
HETATM   30  N   UNL     1       0.956  10.275  25.486  0.00  0.00    -0.351 N 
HETATM   31  C   UNL     1       2.145  10.709  24.767  0.00  0.00     0.153 C 
HETATM   32  O   UNL     1      -0.172   8.703  26.713  0.00  0.00    -0.266 OA
BRANCH  30  33
HETATM   33  C   UNL     1      -0.237  11.115  25.396  0.00  0.00     0.129 C 
BRANCH  33  34
HETATM   34  C   UNL     1      -0.469  11.785  24.027  0.00  0.00    -0.005 C 
HETATM   35  C   UNL     1      -1.865  11.521  23.466  0.00  0.00     0.011 C 
HETATM   36  C   UNL     1      -0.180  13.285  24.050  0.00  0.00     0.011 C 
ENDBRANCH  33  34
ENDBRANCH  30  33
ENDBRANCH   1  29
TORSDOF 7
ENDMDL
MODEL 2
REMARK VINA RESULT:    -7.609      2.558      4.721
REMARK INTER + INTRA:         -11.001
REMARK INTER:                 -10.076
REMARK INTRA:                  -0.925
REMARK UNBOUND:                -0.500
REMARK  7 active torsions:
REMARK  status: ('A' for Active; 'I' for Inactive)
REMARK    1  A    between atoms: C_2  and  C_4 
REMARK    2  A    between atoms: C_4  and  N_5 
REMARK       I    between atoms: N_5  and  C_7 
REMARK    3  A    between atoms: C_7  and  C_9 
REMARK    4  A    between atoms: C_16  and  C_20 
REMARK    5  A    between atoms: C_17  and  O_19 
REMARK       I    between atoms: C_20  and  N_22 
REMARK    6  A    between atoms: N_22  and  C_24 
REMARK    7  A    between atoms: C_27  and  N_30 
ROOT
HETATM    1  C   UNL     1       4.223   6.395  22.704  0.00  0.00     0.157 A 
HETATM    2  N   UNL     1       5.474   6.760  23.051  0.00  0.00    -0.168 NA
HETATM    3  N   UNL     1       6.139   6.852  21.887  0.00  0.00    -0.277 N 
HETATM    4  H   UNL     1       7.116   7.114  21.910  0.00  0.00     0.189 HD
HETATM    5  C   UNL     1       4.135   6.219  21.291  0.00  0.00     0.029 A 
HETATM    6  C   UNL     1       5.378   6.569  20.790  0.00  0.00     0.065 A 
HETATM    7  C   UNL     1       3.123   5.821  20.397  0.00  0.00     0.036 C 
HETATM    8  C   UNL     1       3.337   5.904  19.023  0.00  0.00     0.066 C 
HETATM    9  C   UNL     1       4.640   6.191  18.565  0.00  0.00     0.083 C 
HETATM   10  C   UNL     1       5.682   6.549  19.430  0.00  0.00     0.069 C 
ENDROOT
BRANCH   8  11
HETATM   11  C   UNL     1       2.258   5.577  18.048  0.00  0.00     0.260 C 
HETATM   12  O   UNL     1       1.455   6.503  17.900  0.00  0.00    -0.267 OA
HETATM   13  N   UNL     1       2.138   4.303  17.420  0.00  0.00    -0.318 N 
HETATM   14  C   UNL     1       2.866   3.087  17.817  0.00  0.00     0.159 C 
BRANCH  13  15
HETATM   15  C   UNL     1       1.030   4.076  16.510  0.00  0.00     0.037 A 
HETATM   16  C   UNL     1       0.008   3.177  16.811  0.00  0.00     0.032 A 
HETATM   17  C   UNL     1      -0.992   2.874  15.877  0.00  0.00     0.031 A 
HETATM   18  C   UNL     1      -1.032   3.459  14.606  0.00  0.00     0.030 A 
HETATM   19  C   UNL     1      -0.070   4.439  14.352  0.00  0.00     0.031 A 
HETATM   20  C   UNL     1       0.939   4.744  15.281  0.00  0.00     0.032 A 
BRANCH  18  21
HETATM   21  N   UNL     1      -1.960   3.065  13.669  0.00  0.00    -0.377 N 
HETATM   22  C   UNL     1      -3.180   2.311  13.982  0.00  0.00     0.149 C 
HETATM   23  C   UNL     1      -4.418   3.079  13.496  0.00  0.00     0.187 C 
HETATM   24  O   UNL     1      -4.327   3.387  12.094  0.00  0.00    -0.388 OA
HETATM   25  C   UNL     1      -3.172   4.203  11.844  0.00  0.00     0.187 C 
HETATM   26  C   UNL     1      -1.867   3.509  12.266  0.00  0.00     0.149 C 
ENDBRANCH  18  21
ENDBRANCH  13  15
ENDBRANCH   8  11
BRANCH   9  27
HETATM   27  O   UNL     1       5.011   6.079  17.247  0.00  0.00    -0.360 OA
HETATM   28  H   UNL     1       4.740   6.918  16.805  0.00  0.00     0.217 HD
ENDBRANCH   9  27
BRANCH   1  29
HETATM   29  C   UNL     1       3.098   6.196  23.650  0.00  0.00     0.274 C 
HETATM   30  N   UNL     1       2.540   7.306  24.305  0.00  0.00    -0.351 N 
HETATM   31  C   UNL     1       2.921   8.682  24.021  0.00  0.00     0.153 C 
HETATM   32  O   UNL     1       2.640   5.068  23.825  0.00  0.00    -0.266 OA
BRANCH  30  33
HETATM   33  C   UNL     1       1.511   7.081  25.319  0.00  0.00     0.129 C 
BRANCH  33  34
HETATM   34  C   UNL     1       0.756   8.343  25.783  0.00  0.00    -0.005 C 
HETATM   35  C   UNL     1      -0.613   8.492  25.122  0.00  0.00     0.011 C 
HETATM   36  C   UNL     1       0.624   8.423  27.303  0.00  0.00     0.011 C 
ENDBRANCH  33  34
ENDBRANCH  30  33
ENDBRANCH   1  29
TORSDOF 7
ENDMDL
MODEL 3
REMARK VINA RESULT:    -7.553      1.765      2.530
REMARK INTER + INTRA:         -10.923
REMARK INTER:                  -9.896
REMARK INTRA:                  -1.027
REMARK UNBOUND:                -0.500
REMARK  7 active torsions:
REMARK  status: ('A' for Active; 'I' for Inactive)
REMARK    1  A    between atoms: C_2  and  C_4 
REMARK    2  A    between atoms: C_4  and  N_5 
REMARK       I    between atoms: N_5  and  C_7 
REMARK    3  A    between atoms: C_7  and  C_9 
REMARK    4  A    between atoms: C_16  and  C_20 
REMARK    5  A    between atoms: C_17  and  O_19 
REMARK       I    between atoms: C_20  and  N_22 
REMARK    6  A    between atoms: N_22  and  C_24 
REMARK    7  A    between atoms: C_27  and  N_30 
ROOT
HETATM    1  C   UNL     1       3.271   7.033  24.762  0.00  0.00     0.157 A 
HETATM    2  N   UNL     1       4.374   7.202  25.519  0.00  0.00    -0.168 NA
HETATM    3  N   UNL     1       5.394   6.850  24.720  0.00  0.00    -0.277 N 
HETATM    4  H   UNL     1       6.335   6.897  25.090  0.00  0.00     0.189 HD
HETATM    5  C   UNL     1       3.627   6.523  23.478  0.00  0.00     0.029 A 
HETATM    6  C   UNL     1       5.010   6.462  23.468  0.00  0.00     0.065 A 
HETATM    7  C   UNL     1       2.915   6.131  22.329  0.00  0.00     0.036 C 
HETATM    8  C   UNL     1       3.603   5.811  21.160  0.00  0.00     0.066 C 
HETATM    9  C   UNL     1       5.007   5.690  21.224  0.00  0.00     0.083 C 
HETATM   10  C   UNL     1       5.744   6.029  22.365  0.00  0.00     0.069 C 
ENDROOT
BRANCH   8  11
HETATM   11  C   UNL     1       2.881   5.481  19.900  0.00  0.00     0.260 C 
HETATM   12  O   UNL     1       2.769   4.264  19.721  0.00  0.00    -0.267 OA
HETATM   13  N   UNL     1       2.439   6.471  18.975  0.00  0.00    -0.318 N 
HETATM   14  C   UNL     1       2.841   7.886  18.987  0.00  0.00     0.159 C 
BRANCH  13  15
HETATM   15  C   UNL     1       1.773   6.042  17.758  0.00  0.00     0.037 A 
HETATM   16  C   UNL     1       0.669   5.191  17.789  0.00  0.00     0.032 A 
HETATM   17  C   UNL     1       0.107   4.686  16.609  0.00  0.00     0.031 A 
HETATM   18  C   UNL     1       0.606   5.012  15.343  0.00  0.00     0.030 A 
HETATM   19  C   UNL     1       1.640   5.950  15.314  0.00  0.00     0.031 A 
HETATM   20  C   UNL     1       2.213   6.457  16.493  0.00  0.00     0.032 A 
BRANCH  18  21
HETATM   21  N   UNL     1       0.106   4.420  14.205  0.00  0.00    -0.377 N 
HETATM   22  C   UNL     1       0.938   3.830  13.148  0.00  0.00     0.149 C 
HETATM   23  C   UNL     1       0.560   2.357  12.937  0.00  0.00     0.187 C 
HETATM   24  O   UNL     1      -0.842   2.210  12.655  0.00  0.00    -0.388 OA
HETATM   25  C   UNL     1      -1.620   2.713  13.753  0.00  0.00     0.187 C 
HETATM   26  C   UNL     1      -1.341   4.200  14.029  0.00  0.00     0.149 C 
ENDBRANCH  18  21
ENDBRANCH  13  15
ENDBRANCH   8  11
BRANCH   9  27
HETATM   27  O   UNL     1       5.760   5.168  20.199  0.00  0.00    -0.360 OA
HETATM   28  H   UNL     1       5.733   5.826  19.465  0.00  0.00     0.217 HD
ENDBRANCH   9  27
BRANCH   1  29
HETATM   29  C   UNL     1       1.883   7.326  25.198  0.00  0.00     0.274 C 
HETATM   30  N   UNL     1       1.435   8.657  25.234  0.00  0.00    -0.351 N 
HETATM   31  C   UNL     1       2.220   9.783  24.749  0.00  0.00     0.153 C 
HETATM   32  O   UNL     1       1.126   6.401  25.488  0.00  0.00    -0.266 OA
BRANCH  30  33
HETATM   33  C   UNL     1       0.106   8.937  25.774  0.00  0.00     0.129 C 
BRANCH  33  34
HETATM   34  C   UNL     1      -0.393  10.383  25.579  0.00  0.00    -0.005 C 
HETATM   35  C   UNL     1      -1.379  10.519  24.419  0.00  0.00     0.011 C 
HETATM   36  C   UNL     1      -0.987  10.978  26.855  0.00  0.00     0.011 C 
ENDBRANCH  33  34
ENDBRANCH  30  33
ENDBRANCH   1  29
TORSDOF 7
ENDMDL
MODEL 4
REMARK VINA RESULT:    -7.524      4.430      8.492
REMARK INTER + INTRA:         -10.883
REMARK INTER:                 -10.443
REMARK INTRA:                  -0.440
REMARK UNBOUND:                -0.500
REMARK  7 active torsions:
REMARK  status: ('A' for Active; 'I' for Inactive)
REMARK    1  A    between atoms: C_2  and  C_4 
REMARK    2  A    between atoms: C_4  and  N_5 
REMARK       I    between atoms: N_5  and  C_7 
REMARK    3  A    between atoms: C_7  and  C_9 
REMARK    4  A    between atoms: C_16  and  C_20 
REMARK    5  A    between atoms: C_17  and  O_19 
REMARK       I    between atoms: C_20  and  N_22 
REMARK    6  A    between atoms: N_22  and  C_24 
REMARK    7  A    between atoms: C_27  and  N_30 
ROOT
HETATM    1  C   UNL     1       4.659   7.904  19.103  0.00  0.00     0.157 A 
HETATM    2  N   UNL     1       5.838   8.384  18.659  0.00  0.00    -0.168 NA
HETATM    3  N   UNL     1       6.738   7.972  19.568  0.00  0.00    -0.277 N 
HETATM    4  H   UNL     1       7.709   8.226  19.435  0.00  0.00     0.189 HD
HETATM    5  C   UNL     1       4.839   7.217  20.340  0.00  0.00     0.029 A 
HETATM    6  C   UNL     1       6.202   7.238  20.587  0.00  0.00     0.065 A 
HETATM    7  C   UNL     1       3.987   6.567  21.253  0.00  0.00     0.036 C 
HETATM    8  C   UNL     1       4.528   5.848  22.318  0.00  0.00     0.066 C 
HETATM    9  C   UNL     1       5.911   5.965  22.569  0.00  0.00     0.083 C 
HETATM   10  C   UNL     1       6.781   6.640  21.705  0.00  0.00     0.069 C 
ENDROOT
BRANCH   8  11
HETATM   11  C   UNL     1       3.662   5.074  23.250  0.00  0.00     0.260 C 
HETATM   12  O   UNL     1       2.997   5.800  23.995  0.00  0.00    -0.267 OA
HETATM   13  N   UNL     1       3.668   3.650  23.315  0.00  0.00    -0.318 N 
HETATM   14  C   UNL     1       4.671   2.774  22.689  0.00  0.00     0.159 C 
BRANCH  13  15
HETATM   15  C   UNL     1       2.809   2.992  24.282  0.00  0.00     0.037 A 
HETATM   16  C   UNL     1       2.208   1.763  24.012  0.00  0.00     0.032 A 
HETATM   17  C   UNL     1       1.288   1.193  24.901  0.00  0.00     0.031 A 
HETATM   18  C   UNL     1       0.931   1.808  26.106  0.00  0.00     0.030 A 
HETATM   19  C   UNL     1       1.618   2.981  26.423  0.00  0.00     0.031 A 
HETATM   20  C   UNL     1       2.539   3.563  25.534  0.00  0.00     0.032 A 
BRANCH  18  21
HETATM   21  N   UNL     1      -0.055   1.282  26.911  0.00  0.00    -0.377 N 
HETATM   22  C   UNL     1      -1.489   1.332  26.599  0.00  0.00     0.149 C 
HETATM   23  C   UNL     1      -2.075  -0.087  26.572  0.00  0.00     0.187 C 
HETATM   24  O   UNL     1      -1.822  -0.782  27.805  0.00  0.00    -0.388 OA
HETATM   25  C   UNL     1      -0.407  -0.892  28.027  0.00  0.00     0.187 C 
HETATM   26  C   UNL     1       0.277   0.483  28.105  0.00  0.00     0.149 C 
ENDBRANCH  18  21
ENDBRANCH  13  15
ENDBRANCH   8  11
BRANCH   9  27
HETATM   27  O   UNL     1       6.507   5.484  23.710  0.00  0.00    -0.360 OA
HETATM   28  H   UNL     1       5.818   4.970  24.193  0.00  0.00     0.217 HD
ENDBRANCH   9  27
BRANCH   1  29
HETATM   29  C   UNL     1       3.356   8.071  18.414  0.00  0.00     0.274 C 
HETATM   30  N   UNL     1       2.856   7.029  17.615  0.00  0.00    -0.351 N 
HETATM   31  C   UNL     1       3.488   5.722  17.513  0.00  0.00     0.153 C 
HETATM   32  O   UNL     1       2.707   9.104  18.576  0.00  0.00    -0.266 OA
BRANCH  30  33
HETATM   33  C   UNL     1       1.630   7.253  16.853  0.00  0.00     0.129 C 
BRANCH  33  34
HETATM   34  C   UNL     1       0.758   6.002  16.625  0.00  0.00    -0.005 C 
HETATM   35  C   UNL     1      -0.220   5.743  17.771  0.00  0.00     0.011 C 
HETATM   36  C   UNL     1       0.015   6.037  15.290  0.00  0.00     0.011 C 
ENDBRANCH  33  34
ENDBRANCH  30  33
ENDBRANCH   1  29
TORSDOF 7
ENDMDL
MODEL 5
REMARK VINA RESULT:    -7.491      1.890      2.566
REMARK INTER + INTRA:         -10.838
REMARK INTER:                  -9.689
REMARK INTRA:                  -1.149
REMARK UNBOUND:                -0.500
REMARK  7 active torsions:
REMARK  status: ('A' for Active; 'I' for Inactive)
REMARK    1  A    between atoms: C_2  and  C_4 
REMARK    2  A    between atoms: C_4  and  N_5 
REMARK       I    between atoms: N_5  and  C_7 
REMARK    3  A    between atoms: C_7  and  C_9 
REMARK    4  A    between atoms: C_16  and  C_20 
REMARK    5  A    between atoms: C_17  and  O_19 
REMARK       I    between atoms: C_20  and  N_22 
REMARK    6  A    between atoms: N_22  and  C_24 
REMARK    7  A    between atoms: C_27  and  N_30 
ROOT
HETATM    1  C   UNL     1       3.100   6.932  25.719  0.00  0.00     0.157 A 
HETATM    2  N   UNL     1       4.215   7.183  26.434  0.00  0.00    -0.168 NA
HETATM    3  N   UNL     1       5.228   6.901  25.598  0.00  0.00    -0.277 N 
HETATM    4  H   UNL     1       6.176   7.018  25.933  0.00  0.00     0.189 HD
HETATM    5  C   UNL     1       3.444   6.443  24.423  0.00  0.00     0.029 A 
HETATM    6  C   UNL     1       4.827   6.481  24.362  0.00  0.00     0.065 A 
HETATM    7  C   UNL     1       2.720   5.996  23.302  0.00  0.00     0.036 C 
HETATM    8  C   UNL     1       3.386   5.721  22.109  0.00  0.00     0.066 C 
HETATM    9  C   UNL     1       4.796   5.701  22.120  0.00  0.00     0.083 C 
HETATM   10  C   UNL     1       5.548   6.098  23.233  0.00  0.00     0.069 C 
ENDROOT
BRANCH   8  11
HETATM   11  C   UNL     1       2.643   5.334  20.877  0.00  0.00     0.260 C 
HETATM   12  O   UNL     1       2.238   4.168  20.913  0.00  0.00    -0.267 OA
HETATM   13  N   UNL     1       2.490   6.202  19.757  0.00  0.00    -0.318 N 
HETATM   14  C   UNL     1       3.230   7.456  19.545  0.00  0.00     0.159 C 
BRANCH  13  15
HETATM   15  C   UNL     1       1.776   5.716  18.590  0.00  0.00     0.037 A 
HETATM   16  C   UNL     1       0.421   5.982  18.397  0.00  0.00     0.032 A 
HETATM   17  C   UNL     1      -0.288   5.410  17.333  0.00  0.00     0.031 A 
HETATM   18  C   UNL     1       0.317   4.559  16.402  0.00  0.00     0.030 A 
HETATM   19  C   UNL     1       1.696   4.385  16.536  0.00  0.00     0.031 A 
HETATM   20  C   UNL     1       2.413   4.950  17.604  0.00  0.00     0.032 A 
BRANCH  18  21
HETATM   21  N   UNL     1      -0.423   3.924  15.429  0.00  0.00    -0.377 N 
HETATM   22  C   UNL     1      -0.652   4.464  14.083  0.00  0.00     0.149 C 
HETATM   23  C   UNL     1      -0.162   3.467  13.022  0.00  0.00     0.187 C 
HETATM   24  O   UNL     1      -0.777   2.179  13.190  0.00  0.00    -0.388 OA
HETATM   25  C   UNL     1      -0.452   1.644  14.483  0.00  0.00     0.187 C 
HETATM   26  C   UNL     1      -0.931   2.555  15.626  0.00  0.00     0.149 C 
ENDBRANCH  18  21
ENDBRANCH  13  15
ENDBRANCH   8  11
BRANCH   9  27
HETATM   27  O   UNL     1       5.546   5.230  21.069  0.00  0.00    -0.360 OA
HETATM   28  H   UNL     1       6.380   5.755  21.060  0.00  0.00     0.217 HD
ENDBRANCH   9  27
BRANCH   1  29
HETATM   29  C   UNL     1       1.712   7.126  26.206  0.00  0.00     0.274 C 
HETATM   30  N   UNL     1       1.079   8.366  26.018  0.00  0.00    -0.351 N 
HETATM   31  C   UNL     1       1.664   9.459  25.255  0.00  0.00     0.153 C 
HETATM   32  O   UNL     1       1.114   6.190  26.735  0.00  0.00    -0.266 OA
BRANCH  30  33
HETATM   33  C   UNL     1      -0.243   8.577  26.604  0.00  0.00     0.129 C 
BRANCH  33  34
HETATM   34  C   UNL     1      -0.284   9.539  27.809  0.00  0.00    -0.005 C 
HETATM   35  C   UNL     1      -1.642  10.217  27.981  0.00  0.00     0.011 C 
HETATM   36  C   UNL     1       0.144   8.866  29.112  0.00  0.00     0.011 C 
ENDBRANCH  33  34
ENDBRANCH  30  33
ENDBRANCH   1  29
TORSDOF 7
ENDMDL
MODEL 6
REMARK VINA RESULT:    -7.426      3.420     10.160
REMARK INTER + INTRA:         -10.748
REMARK INTER:                  -9.506
REMARK INTRA:                  -1.242
REMARK UNBOUND:                -0.500
REMARK  7 active torsions:
REMARK  status: ('A' for Active; 'I' for Inactive)
REMARK    1  A    between atoms: C_2  and  C_4 
REMARK    2  A    between atoms: C_4  and  N_5 
REMARK       I    between atoms: N_5  and  C_7 
REMARK    3  A    between atoms: C_7  and  C_9 
REMARK    4  A    between atoms: C_16  and  C_20 
REMARK    5  A    between atoms: C_17  and  O_19 
REMARK       I    between atoms: C_20  and  N_22 
REMARK    6  A    between atoms: N_22  and  C_24 
REMARK    7  A    between atoms: C_27  and  N_30 
ROOT
HETATM    1  C   UNL     1       4.479   5.826  19.211  0.00  0.00     0.157 A 
HETATM    2  N   UNL     1       5.102   6.436  18.182  0.00  0.00    -0.168 NA
HETATM    3  N   UNL     1       5.295   7.698  18.599  0.00  0.00    -0.277 N 
HETATM    4  H   UNL     1       5.753   8.349  17.973  0.00  0.00     0.189 HD
HETATM    5  C   UNL     1       4.248   6.755  20.269  0.00  0.00     0.029 A 
HETATM    6  C   UNL     1       4.831   7.943  19.860  0.00  0.00     0.065 A 
HETATM    7  C   UNL     1       3.626   6.696  21.530  0.00  0.00     0.036 C 
HETATM    8  C   UNL     1       3.712   7.781  22.400  0.00  0.00     0.066 C 
HETATM    9  C   UNL     1       4.247   8.990  21.909  0.00  0.00     0.083 C 
HETATM   10  C   UNL     1       4.835   9.097  20.643  0.00  0.00     0.069 C 
ENDROOT
BRANCH   8  11
HETATM   11  C   UNL     1       3.143   7.720  23.776  0.00  0.00     0.260 C 
HETATM   12  O   UNL     1       2.310   8.606  23.985  0.00  0.00    -0.267 OA
HETATM   13  N   UNL     1       3.579   6.781  24.756  0.00  0.00    -0.318 N 
HETATM   14  C   UNL     1       4.783   5.942  24.653  0.00  0.00     0.159 C 
BRANCH  13  15
HETATM   15  C   UNL     1       2.983   6.827  26.079  0.00  0.00     0.037 A 
HETATM   16  C   UNL     1       1.657   6.458  26.298  0.00  0.00     0.032 A 
HETATM   17  C   UNL     1       1.056   6.618  27.553  0.00  0.00     0.031 A 
HETATM   18  C   UNL     1       1.746   7.139  28.653  0.00  0.00     0.030 A 
HETATM   19  C   UNL     1       3.103   7.403  28.456  0.00  0.00     0.031 A 
HETATM   20  C   UNL     1       3.712   7.250  27.199  0.00  0.00     0.032 A 
BRANCH  18  21
HETATM   21  N   UNL     1       1.104   7.388  29.846  0.00  0.00    -0.377 N 
HETATM   22  C   UNL     1       0.564   6.344  30.725  0.00  0.00     0.149 C 
HETATM   23  C   UNL     1       1.183   6.459  32.126  0.00  0.00     0.187 C 
HETATM   24  O   UNL     1       0.990   7.772  32.678  0.00  0.00    -0.388 OA
HETATM   25  C   UNL     1       1.613   8.756  31.837  0.00  0.00     0.187 C 
HETATM   26  C   UNL     1       1.039   8.748  30.411  0.00  0.00     0.149 C 
ENDBRANCH  18  21
ENDBRANCH  13  15
ENDBRANCH   8  11
BRANCH   9  27
HETATM   27  O   UNL     1       4.176  10.175  22.602  0.00  0.00    -0.360 OA
HETATM   28  H   UNL     1       4.747  10.819  22.120  0.00  0.00     0.217 HD
ENDBRANCH   9  27
BRANCH   1  29
HETATM   29  C   UNL     1       4.081   4.398  19.242  0.00  0.00     0.274 C 
HETATM   30  N   UNL     1       2.803   4.025  18.791  0.00  0.00    -0.351 N 
HETATM   31  C   UNL     1       1.868   4.953  18.172  0.00  0.00     0.153 C 
HETATM   32  O   UNL     1       4.883   3.548  19.625  0.00  0.00    -0.266 OA
BRANCH  30  33
HETATM   33  C   UNL     1       2.385   2.632  18.935  0.00  0.00     0.129 C 
BRANCH  33  34
HETATM   34  C   UNL     1       1.379   2.360  20.072  0.00  0.00    -0.005 C 
HETATM   35  C   UNL     1       0.230   1.449  19.643  0.00  0.00     0.011 C 
HETATM   36  C   UNL     1       2.049   1.815  21.332  0.00  0.00     0.011 C 
ENDBRANCH  33  34
ENDBRANCH  30  33
ENDBRANCH   1  29
TORSDOF 7
ENDMDL
MODEL 7
REMARK VINA RESULT:    -7.377      3.221      6.332
REMARK INTER + INTRA:         -10.680
REMARK INTER:                 -10.180
REMARK INTRA:                  -0.500
REMARK UNBOUND:                -0.500
REMARK  7 active torsions:
REMARK  status: ('A' for Active; 'I' for Inactive)
REMARK    1  A    between atoms: C_2  and  C_4 
REMARK    2  A    between atoms: C_4  and  N_5 
REMARK       I    between atoms: N_5  and  C_7 
REMARK    3  A    between atoms: C_7  and  C_9 
REMARK    4  A    between atoms: C_16  and  C_20 
REMARK    5  A    between atoms: C_17  and  O_19 
REMARK       I    between atoms: C_20  and  N_22 
REMARK    6  A    between atoms: N_22  and  C_24 
REMARK    7  A    between atoms: C_27  and  N_30 
ROOT
HETATM    1  C   UNL     1       1.559   7.251  30.411  0.00  0.00     0.157 A 
HETATM    2  N   UNL     1       0.768   7.770  31.371  0.00  0.00    -0.168 NA
HETATM    3  N   UNL     1       0.026   8.696  30.740  0.00  0.00    -0.277 N 
HETATM    4  H   UNL     1      -0.649   9.223  31.280  0.00  0.00     0.189 HD
HETATM    5  C   UNL     1       1.323   7.910  29.167  0.00  0.00     0.029 A 
HETATM    6  C   UNL     1       0.292   8.804  29.405  0.00  0.00     0.065 A 
HETATM    7  C   UNL     1       1.865   7.818  27.871  0.00  0.00     0.036 C 
HETATM    8  C   UNL     1       1.282   8.526  26.822  0.00  0.00     0.066 C 
HETATM    9  C   UNL     1       0.288   9.478  27.129  0.00  0.00     0.083 C 
HETATM   10  C   UNL     1      -0.244   9.627  28.416  0.00  0.00     0.069 C 
ENDROOT
BRANCH   8  11
HETATM   11  C   UNL     1       1.772   8.383  25.422  0.00  0.00     0.260 C 
HETATM   12  O   UNL     1       0.916   8.684  24.586  0.00  0.00    -0.267 OA
HETATM   13  N   UNL     1       3.067   7.881  25.100  0.00  0.00    -0.318 N 
HETATM   14  C   UNL     1       3.977   7.209  26.040  0.00  0.00     0.159 C 
BRANCH  13  15
HETATM   15  C   UNL     1       3.435   7.750  23.702  0.00  0.00     0.037 A 
HETATM   16  C   UNL     1       4.035   8.795  23.001  0.00  0.00     0.032 A 
HETATM   17  C   UNL     1       4.278   8.703  21.625  0.00  0.00     0.031 A 
HETATM   18  C   UNL     1       3.950   7.564  20.881  0.00  0.00     0.030 A 
HETATM   19  C   UNL     1       3.452   6.480  21.607  0.00  0.00     0.031 A 
HETATM   20  C   UNL     1       3.200   6.567  22.987  0.00  0.00     0.032 A 
BRANCH  18  21
HETATM   21  N   UNL     1       4.099   7.538  19.512  0.00  0.00    -0.377 N 
HETATM   22  C   UNL     1       5.107   6.737  18.807  0.00  0.00     0.149 C 
HETATM   23  C   UNL     1       4.428   5.798  17.800  0.00  0.00     0.187 C 
HETATM   24  O   UNL     1       3.592   6.526  16.885  0.00  0.00    -0.388 OA
HETATM   25  C   UNL     1       2.562   7.221  17.606  0.00  0.00     0.187 C 
HETATM   26  C   UNL     1       3.139   8.218  18.625  0.00  0.00     0.149 C 
ENDBRANCH  18  21
ENDBRANCH  13  15
ENDBRANCH   8  11
BRANCH   9  27
HETATM   27  O   UNL     1      -0.192  10.381  26.211  0.00  0.00    -0.360 OA
HETATM   28  H   UNL     1       0.577  10.661  25.661  0.00  0.00     0.217 HD
ENDBRANCH   9  27
BRANCH   1  29
HETATM   29  C   UNL     1       2.543   6.159  30.612  0.00  0.00     0.274 C 
HETATM   30  N   UNL     1       3.916   6.441  30.536  0.00  0.00    -0.351 N 
HETATM   31  C   UNL     1       4.453   7.786  30.388  0.00  0.00     0.153 C 
HETATM   32  O   UNL     1       2.149   5.025  30.880  0.00  0.00    -0.266 OA
BRANCH  30  33
HETATM   33  C   UNL     1       4.868   5.335  30.623  0.00  0.00     0.129 C 
BRANCH  33  34
HETATM   34  C   UNL     1       5.661   5.045  29.333  0.00  0.00    -0.005 C 
HETATM   35  C   UNL     1       6.942   4.253  29.588  0.00  0.00     0.011 C 
HETATM   36  C   UNL     1       4.814   4.357  28.264  0.00  0.00     0.011 C 
ENDBRANCH  33  34
ENDBRANCH  30  33
ENDBRANCH   1  29
TORSDOF 7
ENDMDL
MODEL 8
REMARK VINA RESULT:    -7.312      2.915      9.955
REMARK INTER + INTRA:         -10.591
REMARK INTER:                  -9.407
REMARK INTRA:                  -1.184
REMARK UNBOUND:                -0.500
REMARK  7 active torsions:
REMARK  status: ('A' for Active; 'I' for Inactive)
REMARK    1  A    between atoms: C_2  and  C_4 
REMARK    2  A    between atoms: C_4  and  N_5 
REMARK       I    between atoms: N_5  and  C_7 
REMARK    3  A    between atoms: C_7  and  C_9 
REMARK    4  A    between atoms: C_16  and  C_20 
REMARK    5  A    between atoms: C_17  and  O_19 
REMARK       I    between atoms: C_20  and  N_22 
REMARK    6  A    between atoms: N_22  and  C_24 
REMARK    7  A    between atoms: C_27  and  N_30 
ROOT
HETATM    1  C   UNL     1       2.084   5.681  17.903  0.00  0.00     0.157 A 
HETATM    2  N   UNL     1       2.796   5.427  16.787  0.00  0.00    -0.168 NA
HETATM    3  N   UNL     1       4.051   5.800  17.090  0.00  0.00    -0.277 N 
HETATM    4  H   UNL     1       4.768   5.698  16.383  0.00  0.00     0.189 HD
HETATM    5  C   UNL     1       2.920   6.265  18.901  0.00  0.00     0.029 A 
HETATM    6  C   UNL     1       4.194   6.283  18.359  0.00  0.00     0.065 A 
HETATM    7  C   UNL     1       2.722   6.755  20.206  0.00  0.00     0.036 C 
HETATM    8  C   UNL     1       3.818   7.131  20.980  0.00  0.00     0.066 C 
HETATM    9  C   UNL     1       5.082   7.204  20.359  0.00  0.00     0.083 C 
HETATM   10  C   UNL     1       5.306   6.765  19.048  0.00  0.00     0.069 C 
ENDROOT
BRANCH   8  11
HETATM   11  C   UNL     1       3.654   7.569  22.395  0.00  0.00     0.260 C 
HETATM   12  O   UNL     1       3.932   8.760  22.559  0.00  0.00    -0.267 OA
HETATM   13  N   UNL     1       3.289   6.678  23.446  0.00  0.00    -0.318 N 
HETATM   14  C   UNL     1       3.276   5.210  23.351  0.00  0.00     0.159 C 
BRANCH  13  15
HETATM   15  C   UNL     1       3.189   7.198  24.798  0.00  0.00     0.037 A 
HETATM   16  C   UNL     1       4.070   6.801  25.803  0.00  0.00     0.032 A 
HETATM   17  C   UNL     1       3.893   7.214  27.129  0.00  0.00     0.031 A 
HETATM   18  C   UNL     1       2.842   8.052  27.520  0.00  0.00     0.030 A 
HETATM   19  C   UNL     1       2.029   8.534  26.492  0.00  0.00     0.031 A 
HETATM   20  C   UNL     1       2.196   8.120  25.160  0.00  0.00     0.032 A 
BRANCH  18  21
HETATM   21  N   UNL     1       2.627   8.356  28.845  0.00  0.00    -0.377 N 
HETATM   22  C   UNL     1       1.325   8.744  29.401  0.00  0.00     0.149 C 
HETATM   23  C   UNL     1       0.929   7.791  30.539  0.00  0.00     0.187 C 
HETATM   24  O   UNL     1       1.946   7.735  31.553  0.00  0.00    -0.388 OA
HETATM   25  C   UNL     1       3.179   7.262  30.988  0.00  0.00     0.187 C 
HETATM   26  C   UNL     1       3.684   8.170  29.855  0.00  0.00     0.149 C 
ENDBRANCH  18  21
ENDBRANCH  13  15
ENDBRANCH   8  11
BRANCH   9  27
HETATM   27  O   UNL     1       6.180   7.770  20.962  0.00  0.00    -0.360 OA
HETATM   28  H   UNL     1       5.846   8.274  21.740  0.00  0.00     0.217 HD
ENDBRANCH   9  27
BRANCH   1  29
HETATM   29  C   UNL     1       0.636   5.404  18.073  0.00  0.00     0.274 C 
HETATM   30  N   UNL     1       0.225   4.160  18.582  0.00  0.00    -0.351 N 
HETATM   31  C   UNL     1       1.148   3.149  19.076  0.00  0.00     0.153 C 
HETATM   32  O   UNL     1      -0.188   6.275  17.804  0.00  0.00    -0.266 OA
BRANCH  30  33
HETATM   33  C   UNL     1      -1.205   3.861  18.636  0.00  0.00     0.129 C 
BRANCH  33  34
HETATM   34  C   UNL     1      -1.568   2.365  18.548  0.00  0.00    -0.005 C 
HETATM   35  C   UNL     1      -2.777   1.996  19.406  0.00  0.00     0.011 C 
HETATM   36  C   UNL     1      -1.774   1.893  17.109  0.00  0.00     0.011 C 
ENDBRANCH  33  34
ENDBRANCH  30  33
ENDBRANCH   1  29
TORSDOF 7
ENDMDL
MODEL 9
REMARK VINA RESULT:    -7.290      2.809      4.591
REMARK INTER + INTRA:         -10.561
REMARK INTER:                  -9.559
REMARK INTRA:                  -1.002
REMARK UNBOUND:                -0.500
REMARK  7 active torsions:
REMARK  status: ('A' for Active; 'I' for Inactive)
REMARK    1  A    between atoms: C_2  and  C_4 
REMARK    2  A    between atoms: C_4  and  N_5 
REMARK       I    between atoms: N_5  and  C_7 
REMARK    3  A    between atoms: C_7  and  C_9 
REMARK    4  A    between atoms: C_16  and  C_20 
REMARK    5  A    between atoms: C_17  and  O_19 
REMARK       I    between atoms: C_20  and  N_22 
REMARK    6  A    between atoms: N_22  and  C_24 
REMARK    7  A    between atoms: C_27  and  N_30 
ROOT
HETATM    1  C   UNL     1       3.472   7.186  23.720  0.00  0.00     0.157 A 
HETATM    2  N   UNL     1       3.880   8.374  24.209  0.00  0.00    -0.168 NA
HETATM    3  N   UNL     1       4.256   9.078  23.128  0.00  0.00    -0.277 N 
HETATM    4  H   UNL     1       4.607  10.018  23.263  0.00  0.00     0.189 HD
HETATM    5  C   UNL     1       3.642   7.150  22.304  0.00  0.00     0.029 A 
HETATM    6  C   UNL     1       4.105   8.406  21.949  0.00  0.00     0.065 A 
HETATM    7  C   UNL     1       3.430   6.188  21.299  0.00  0.00     0.036 C 
HETATM    8  C   UNL     1       3.563   6.543  19.958  0.00  0.00     0.066 C 
HETATM    9  C   UNL     1       4.109   7.807  19.652  0.00  0.00     0.083 C 
HETATM   10  C   UNL     1       4.374   8.772  20.632  0.00  0.00     0.069 C 
ENDROOT
BRANCH   8  11
HETATM   11  C   UNL     1       3.258   5.577  18.865  0.00  0.00     0.260 C 
HETATM   12  O   UNL     1       4.275   5.082  18.371  0.00  0.00    -0.267 OA
HETATM   13  N   UNL     1       1.935   5.320  18.402  0.00  0.00    -0.318 N 
HETATM   14  C   UNL     1       0.747   6.123  18.733  0.00  0.00     0.159 C 
BRANCH  13  15
HETATM   15  C   UNL     1       1.748   4.384  17.309  0.00  0.00     0.037 A 
HETATM   16  C   UNL     1       1.957   3.015  17.472  0.00  0.00     0.032 A 
HETATM   17  C   UNL     1       1.891   2.135  16.384  0.00  0.00     0.031 A 
HETATM   18  C   UNL     1       1.602   2.569  15.086  0.00  0.00     0.030 A 
HETATM   19  C   UNL     1       1.285   3.922  14.948  0.00  0.00     0.031 A 
HETATM   20  C   UNL     1       1.354   4.813  16.033  0.00  0.00     0.032 A 
BRANCH  18  21
HETATM   21  N   UNL     1       1.649   1.703  14.016  0.00  0.00    -0.377 N 
HETATM   22  C   UNL     1       2.158   0.328  14.090  0.00  0.00     0.149 C 
HETATM   23  C   UNL     1       1.080  -0.662  13.626  0.00  0.00     0.187 C 
HETATM   24  O   UNL     1       0.605  -0.340  12.308  0.00  0.00    -0.388 OA
HETATM   25  C   UNL     1       0.031   0.976  12.299  0.00  0.00     0.187 C 
HETATM   26  C   UNL     1       1.043   2.055  12.719  0.00  0.00     0.149 C 
ENDBRANCH  18  21
ENDBRANCH  13  15
ENDBRANCH   8  11
BRANCH   9  27
HETATM   27  O   UNL     1       4.488   8.171  18.382  0.00  0.00    -0.360 OA
HETATM   28  H   UNL     1       5.387   8.569  18.458  0.00  0.00     0.217 HD
ENDBRANCH   9  27
BRANCH   1  29
HETATM   29  C   UNL     1       2.929   6.070  24.533  0.00  0.00     0.274 C 
HETATM   30  N   UNL     1       1.762   6.267  25.289  0.00  0.00    -0.351 N 
HETATM   31  C   UNL     1       0.965   7.484  25.234  0.00  0.00     0.153 C 
HETATM   32  O   UNL     1       3.483   4.972  24.509  0.00  0.00    -0.266 OA
BRANCH  30  33
HETATM   33  C   UNL     1       1.306   5.195  26.172  0.00  0.00     0.129 C 
BRANCH  33  34
HETATM   34  C   UNL     1       0.110   5.551  27.078  0.00  0.00    -0.005 C 
HETATM   35  C   UNL     1      -1.010   4.514  27.017  0.00  0.00     0.011 C 
HETATM   36  C   UNL     1       0.524   5.803  28.527  0.00  0.00     0.011 C 
ENDBRANCH  33  34
ENDBRANCH  30  33
ENDBRANCH   1  29
TORSDOF 7
ENDMDL
