MODEL 1
REMARK VINA RESULT:    -9.280      0.000      0.000
REMARK INTER + INTRA:         -12.837
REMARK INTER:                 -11.622
REMARK INTRA:                  -1.215
REMARK UNBOUND:                -1.116
REMARK  5 active torsions:
REMARK  status: ('A' for Active; 'I' for Inactive)
REMARK    1  A    between atoms: N_2  and  C_5 
REMARK    2  A    between atoms: C_5  and  C_6 
REMARK    3  A    between atoms: C_11  and  C_12 
REMARK    4  A    between atoms: C_19  and  N_20 
REMARK    5  A    between atoms: C_22  and  C_23 
REMARK       I    between atoms: C_23  and  N_25 
ROOT
HETATM    1  C   UNL     1       0.266   9.333  26.050  0.00  0.00    -0.024 C 
HETATM    2  C   UNL     1      -0.564  10.243  25.379  0.00  0.00     0.028 C 
HETATM    3  C   UNL     1      -0.098   9.064  27.375  0.00  0.00     0.014 C 
HETATM    4  C   UNL     1      -1.238   9.642  27.956  0.00  0.00     0.033 C 
HETATM    5  C   UNL     1      -2.128  10.414  27.223  0.00  0.00     0.073 A 
HETATM    6  C   UNL     1      -1.822  10.679  25.891  0.00  0.00     0.028 A 
HETATM    7  N   UNL     1      -3.248  10.827  27.809  0.00  0.00    -0.218 NA
HETATM    8  C   UNL     1      -4.152  11.457  27.064  0.00  0.00     0.200 A 
HETATM    9  N   UNL     1      -4.017  11.713  25.770  0.00  0.00    -0.212 NA
HETATM   10  C   UNL     1      -2.866  11.322  25.187  0.00  0.00     0.140 A 
ENDROOT
BRANCH   1  11
HETATM   11  C   UNL     1       1.432   8.639  25.403  0.00  0.00    -0.018 A 
HETATM   12  C   UNL     1       1.334   7.457  24.595  0.00  0.00    -0.022 A 
HETATM   13  C   UNL     1       2.515   6.868  24.082  0.00  0.00     0.010 A 
HETATM   14  C   UNL     1       3.775   7.387  24.377  0.00  0.00     0.001 A 
HETATM   15  C   UNL     1       3.882   8.523  25.160  0.00  0.00     0.001 A 
HETATM   16  C   UNL     1       2.731   9.141  25.651  0.00  0.00     0.013 A 
BRANCH  12  17
HETATM   17  C   UNL     1      -0.010   6.878  24.206  0.00  0.00     0.271 C 
BRANCH  17  18
HETATM   18  N   UNL     1      -0.350   5.509  24.698  0.00  0.00    -0.075 N 
HETATM   19  C   UNL     1      -0.361   5.454  26.189  0.00  0.00     0.267 C 
HETATM   20  H   UNL     1       0.345   4.849  24.328  0.00  0.00     0.277 HD
HETATM   21  H   UNL     1      -1.266   5.223  24.347  0.00  0.00     0.277 HD
ENDBRANCH  17  18
ENDBRANCH  12  17
ENDBRANCH   1  11
BRANCH  10  22
HETATM   22  C   UNL     1      -2.867  11.331  23.666  0.00  0.00     0.273 C 
HETATM   23  O   UNL     1      -3.342  10.355  23.066  0.00  0.00    -0.266 OA
HETATM   24  N   UNL     1      -2.427  12.427  22.931  0.00  0.00    -0.342 N 
HETATM   25  C   UNL     1      -1.747  13.665  23.341  0.00  0.00     0.139 C 
HETATM   26  C   UNL     1      -2.669  12.459  21.499  0.00  0.00     0.161 C 
HETATM   27  C   UNL     1      -2.375  14.725  22.436  0.00  0.00     0.056 C 
HETATM   28  C   UNL     1      -2.732  13.922  21.205  0.00  0.00    -0.056 C 
HETATM   29  C   UNL     1      -1.600  15.961  22.072  0.00  0.00    -0.020 C 
HETATM   30  C   UNL     1      -3.004  14.524  20.035  0.00  0.00    -0.018 C 
HETATM   31  C   UNL     1      -2.838  16.019  19.893  0.00  0.00     0.054 C 
HETATM   32  C   UNL     1      -1.857  16.580  20.902  0.00  0.00    -0.026 C 
ENDBRANCH  10  22
BRANCH   8  33
HETATM   33  N   UNL     1      -5.313  11.859  27.685  0.00  0.00    -0.271 NA
HETATM   34  H   UNL     1      -5.931  11.077  27.854  0.00  0.00     0.127 HD
HETATM   35  H   UNL     1      -5.145  12.497  28.447  0.00  0.00     0.127 HD
ENDBRANCH   8  33
TORSDOF 5
ENDMDL
MODEL 2
REMARK VINA RESULT:    -9.263      3.267      6.882
REMARK INTER + INTRA:         -12.816
REMARK INTER:                 -11.803
REMARK INTRA:                  -1.013
REMARK UNBOUND:                -1.116
REMARK  5 active torsions:
REMARK  status: ('A' for Active; 'I' for Inactive)
REMARK    1  A    between atoms: N_2  and  C_5 
REMARK    2  A    between atoms: C_5  and  C_6 
REMARK    3  A    between atoms: C_11  and  C_12 
REMARK    4  A    between atoms: C_19  and  N_20 
REMARK    5  A    between atoms: C_22  and  C_23 
REMARK       I    between atoms: C_23  and  N_25 
ROOT
HETATM    1  C   UNL     1      -3.111  14.198  22.721  0.00  0.00    -0.024 C 
HETATM    2  C   UNL     1      -2.131  13.254  23.062  0.00  0.00     0.028 C 
HETATM    3  C   UNL     1      -4.197  14.270  23.602  0.00  0.00     0.014 C 
HETATM    4  C   UNL     1      -4.259  13.477  24.759  0.00  0.00     0.033 C 
HETATM    5  C   UNL     1      -3.204  12.668  25.155  0.00  0.00     0.073 A 
HETATM    6  C   UNL     1      -2.089  12.591  24.325  0.00  0.00     0.028 A 
HETATM    7  N   UNL     1      -3.285  12.039  26.325  0.00  0.00    -0.218 NA
HETATM    8  C   UNL     1      -2.220  11.369  26.753  0.00  0.00     0.200 A 
HETATM    9  N   UNL     1      -1.073  11.272  26.094  0.00  0.00    -0.212 NA
HETATM   10  C   UNL     1      -1.005  11.884  24.894  0.00  0.00     0.140 A 
ENDROOT
BRANCH   1  11
HETATM   11  C   UNL     1      -3.004  15.115  21.535  0.00  0.00    -0.018 A 
HETATM   12  C   UNL     1      -3.867  15.077  20.390  0.00  0.00    -0.022 A 
HETATM   13  C   UNL     1      -3.629  15.965  19.313  0.00  0.00     0.010 A 
HETATM   14  C   UNL     1      -2.552  16.849  19.321  0.00  0.00     0.001 A 
HETATM   15  C   UNL     1      -1.709  16.891  20.418  0.00  0.00     0.001 A 
HETATM   16  C   UNL     1      -1.940  16.048  21.506  0.00  0.00     0.013 A 
BRANCH  12  17
HETATM   17  C   UNL     1      -5.079  14.170  20.347  0.00  0.00     0.271 C 
BRANCH  17  18
HETATM   18  N   UNL     1      -5.090  13.066  19.341  0.00  0.00    -0.075 N 
HETATM   19  C   UNL     1      -6.065  13.337  18.245  0.00  0.00     0.267 C 
HETATM   20  H   UNL     1      -5.335  12.192  19.821  0.00  0.00     0.277 HD
HETATM   21  H   UNL     1      -4.159  12.945  18.937  0.00  0.00     0.277 HD
ENDBRANCH  17  18
ENDBRANCH  12  17
ENDBRANCH   1  11
BRANCH  10  22
HETATM   22  C   UNL     1       0.392  12.036  24.314  0.00  0.00     0.273 C 
HETATM   23  O   UNL     1       1.025  11.013  24.012  0.00  0.00    -0.266 OA
HETATM   24  N   UNL     1       0.949  13.280  24.039  0.00  0.00    -0.342 N 
HETATM   25  C   UNL     1       0.494  14.642  24.356  0.00  0.00     0.139 C 
HETATM   26  C   UNL     1       2.184  13.348  23.277  0.00  0.00     0.161 C 
HETATM   27  C   UNL     1       0.882  15.439  23.111  0.00  0.00     0.056 C 
HETATM   28  C   UNL     1       2.092  14.681  22.612  0.00  0.00    -0.056 C 
HETATM   29  C   UNL     1       1.170  16.911  23.217  0.00  0.00    -0.020 C 
HETATM   30  C   UNL     1       2.943  15.231  21.728  0.00  0.00    -0.018 C 
HETATM   31  C   UNL     1       2.776  16.671  21.307  0.00  0.00     0.054 C 
HETATM   32  C   UNL     1       2.022  17.482  22.341  0.00  0.00    -0.026 C 
ENDBRANCH  10  22
BRANCH   8  33
HETATM   33  N   UNL     1      -2.317  10.742  27.975  0.00  0.00    -0.271 NA
HETATM   34  H   UNL     1      -1.501  10.176  28.166  0.00  0.00     0.127 HD
HETATM   35  H   UNL     1      -2.639  11.360  28.704  0.00  0.00     0.127 HD
ENDBRANCH   8  33
TORSDOF 5
ENDMDL
MODEL 3
REMARK VINA RESULT:    -9.129      2.737      7.089
REMARK INTER + INTRA:         -12.646
REMARK INTER:                 -11.405
REMARK INTRA:                  -1.241
REMARK UNBOUND:                -1.116
REMARK  5 active torsions:
REMARK  status: ('A' for Active; 'I' for Inactive)
REMARK    1  A    between atoms: N_2  and  C_5 
REMARK    2  A    between atoms: C_5  and  C_6 
REMARK    3  A    between atoms: C_11  and  C_12 
REMARK    4  A    between atoms: C_19  and  N_20 
REMARK    5  A    between atoms: C_22  and  C_23 
REMARK       I    between atoms: C_23  and  N_25 
ROOT
HETATM    1  C   UNL     1       0.188  14.591  24.455  0.00  0.00    -0.024 C 
HETATM    2  C   UNL     1      -0.555  13.437  24.168  0.00  0.00     0.028 C 
HETATM    3  C   UNL     1      -0.292  15.354  25.527  0.00  0.00     0.014 C 
HETATM    4  C   UNL     1      -1.412  14.952  26.272  0.00  0.00     0.033 C 
HETATM    5  C   UNL     1      -2.033  13.728  26.066  0.00  0.00     0.073 A 
HETATM    6  C   UNL     1      -1.566  12.922  25.032  0.00  0.00     0.028 A 
HETATM    7  N   UNL     1      -3.012  13.362  26.890  0.00  0.00    -0.218 NA
HETATM    8  C   UNL     1      -3.514  12.138  26.764  0.00  0.00     0.200 A 
HETATM    9  N   UNL     1      -3.114  11.246  25.867  0.00  0.00    -0.212 NA
HETATM   10  C   UNL     1      -2.145  11.632  25.013  0.00  0.00     0.140 A 
ENDROOT
BRANCH   1  11
HETATM   11  C   UNL     1       1.443  14.976  23.722  0.00  0.00    -0.018 A 
HETATM   12  C   UNL     1       1.528  16.012  22.733  0.00  0.00    -0.022 A 
HETATM   13  C   UNL     1       2.760  16.244  22.076  0.00  0.00     0.010 A 
HETATM   14  C   UNL     1       3.884  15.462  22.339  0.00  0.00     0.001 A 
HETATM   15  C   UNL     1       3.813  14.456  23.287  0.00  0.00     0.001 A 
HETATM   16  C   UNL     1       2.618  14.228  23.971  0.00  0.00     0.013 A 
BRANCH  12  17
HETATM   17  C   UNL     1       0.352  16.920  22.442  0.00  0.00     0.271 C 
BRANCH  17  18
HETATM   18  N   UNL     1      -0.569  16.536  21.330  0.00  0.00    -0.075 N 
HETATM   19  C   UNL     1      -0.416  17.445  20.157  0.00  0.00     0.267 C 
HETATM   20  H   UNL     1      -1.534  16.574  21.679  0.00  0.00     0.277 HD
HETATM   21  H   UNL     1      -0.386  15.575  21.034  0.00  0.00     0.277 HD
ENDBRANCH  17  18
ENDBRANCH  12  17
ENDBRANCH   1  11
BRANCH  10  22
HETATM   22  C   UNL     1      -1.485  10.512  24.223  0.00  0.00     0.273 C 
HETATM   23  O   UNL     1      -1.792  10.366  23.030  0.00  0.00    -0.266 OA
HETATM   24  N   UNL     1      -0.494   9.704  24.770  0.00  0.00    -0.342 N 
HETATM   25  C   UNL     1       0.012   9.579  26.144  0.00  0.00     0.139 C 
HETATM   26  C   UNL     1       0.252   8.814  23.896  0.00  0.00     0.161 C 
HETATM   27  C   UNL     1       1.513   9.365  25.946  0.00  0.00     0.056 C 
HETATM   28  C   UNL     1       1.562   8.679  24.599  0.00  0.00    -0.056 C 
HETATM   29  C   UNL     1       2.308   8.606  26.972  0.00  0.00    -0.020 C 
HETATM   30  C   UNL     1       2.659   8.017  24.194  0.00  0.00    -0.018 C 
HETATM   31  C   UNL     1       3.830   7.840  25.132  0.00  0.00     0.054 C 
HETATM   32  C   UNL     1       3.413   7.935  26.585  0.00  0.00    -0.026 C 
ENDBRANCH  10  22
BRANCH   8  33
HETATM   33  N   UNL     1      -4.512  11.771  27.638  0.00  0.00    -0.271 NA
HETATM   34  H   UNL     1      -5.045  10.989  27.283  0.00  0.00     0.127 HD
HETATM   35  H   UNL     1      -4.194  11.725  28.594  0.00  0.00     0.127 HD
ENDBRANCH   8  33
TORSDOF 5
ENDMDL
MODEL 4
REMARK VINA RESULT:    -8.934      3.065      6.927
REMARK INTER + INTRA:         -12.400
REMARK INTER:                 -11.089
REMARK INTRA:                  -1.312
REMARK UNBOUND:                -1.116
REMARK  5 active torsions:
REMARK  status: ('A' for Active; 'I' for Inactive)
REMARK    1  A    between atoms: N_2  and  C_5 
REMARK    2  A    between atoms: C_5  and  C_6 
REMARK    3  A    between atoms: C_11  and  C_12 
REMARK    4  A    between atoms: C_19  and  N_20 
REMARK    5  A    between atoms: C_22  and  C_23 
REMARK       I    between atoms: C_23  and  N_25 
ROOT
HETATM    1  C   UNL     1       0.536  14.947  21.738  0.00  0.00    -0.024 C 
HETATM    2  C   UNL     1      -0.356  13.877  21.569  0.00  0.00     0.028 C 
HETATM    3  C   UNL     1      -0.058  16.215  21.758  0.00  0.00     0.014 C 
HETATM    4  C   UNL     1      -1.448  16.378  21.656  0.00  0.00     0.033 C 
HETATM    5  C   UNL     1      -2.318  15.298  21.647  0.00  0.00     0.073 A 
HETATM    6  C   UNL     1      -1.773  14.017  21.661  0.00  0.00     0.028 A 
HETATM    7  N   UNL     1      -3.628  15.531  21.671  0.00  0.00    -0.218 NA
HETATM    8  C   UNL     1      -4.450  14.493  21.791  0.00  0.00     0.200 A 
HETATM    9  N   UNL     1      -4.060  13.228  21.882  0.00  0.00    -0.212 NA
HETATM   10  C   UNL     1      -2.734  12.992  21.825  0.00  0.00     0.140 A 
ENDROOT
BRANCH   1  11
HETATM   11  C   UNL     1       2.014  14.772  21.944  0.00  0.00    -0.018 A 
HETATM   12  C   UNL     1       2.633  14.443  23.196  0.00  0.00    -0.022 A 
HETATM   13  C   UNL     1       4.043  14.355  23.270  0.00  0.00     0.010 A 
HETATM   14  C   UNL     1       4.849  14.620  22.164  0.00  0.00     0.001 A 
HETATM   15  C   UNL     1       4.264  14.944  20.952  0.00  0.00     0.001 A 
HETATM   16  C   UNL     1       2.874  15.006  20.845  0.00  0.00     0.013 A 
BRANCH  12  17
HETATM   17  C   UNL     1       1.805  14.100  24.417  0.00  0.00     0.271 C 
BRANCH  17  18
HETATM   18  N   UNL     1       1.199  15.227  25.188  0.00  0.00    -0.075 N 
HETATM   19  C   UNL     1      -0.273  15.047  25.351  0.00  0.00     0.267 C 
HETATM   20  H   UNL     1       1.392  16.104  24.688  0.00  0.00     0.277 HD
HETATM   21  H   UNL     1       1.631  15.297  26.112  0.00  0.00     0.277 HD
ENDBRANCH  17  18
ENDBRANCH  12  17
ENDBRANCH   1  11
BRANCH  10  22
HETATM   22  C   UNL     1      -2.297  11.599  22.251  0.00  0.00     0.273 C 
HETATM   23  O   UNL     1      -1.769  10.858  21.408  0.00  0.00    -0.266 OA
HETATM   24  N   UNL     1      -2.396  11.162  23.568  0.00  0.00    -0.342 N 
HETATM   25  C   UNL     1      -3.039  11.761  24.746  0.00  0.00     0.139 C 
HETATM   26  C   UNL     1      -1.752   9.916  23.947  0.00  0.00     0.161 C 
HETATM   27  C   UNL     1      -2.076  11.415  25.883  0.00  0.00     0.056 C 
HETATM   28  C   UNL     1      -1.463  10.121  25.398  0.00  0.00    -0.056 C 
HETATM   29  C   UNL     1      -2.588  11.280  27.290  0.00  0.00    -0.020 C 
HETATM   30  C   UNL     1      -0.809   9.301  26.239  0.00  0.00    -0.018 C 
HETATM   31  C   UNL     1      -0.778   9.599  27.720  0.00  0.00     0.054 C 
HETATM   32  C   UNL     1      -1.946  10.463  28.150  0.00  0.00    -0.026 C 
ENDBRANCH  10  22
BRANCH   8  33
HETATM   33  N   UNL     1      -5.800  14.757  21.834  0.00  0.00    -0.271 NA
HETATM   34  H   UNL     1      -5.981  15.712  22.110  0.00  0.00     0.127 HD
HETATM   35  H   UNL     1      -6.291  14.400  21.029  0.00  0.00     0.127 HD
ENDBRANCH   8  33
TORSDOF 5
ENDMDL
MODEL 5
REMARK VINA RESULT:    -8.859      1.294      1.930
REMARK INTER + INTRA:         -12.305
REMARK INTER:                 -11.138
REMARK INTRA:                  -1.167
REMARK UNBOUND:                -1.116
REMARK  5 active torsions:
REMARK  status: ('A' for Active; 'I' for Inactive)
REMARK    1  A    between atoms: N_2  and  C_5 
REMARK    2  A    between atoms: C_5  and  C_6 
REMARK    3  A    between atoms: C_11  and  C_12 
REMARK    4  A    between atoms: C_19  and  N_20 
REMARK    5  A    between atoms: C_22  and  C_23 
REMARK       I    between atoms: C_23  and  N_25 
ROOT
HETATM    1  C   UNL     1       0.132   8.877  25.816  0.00  0.00    -0.024 C 
HETATM    2  C   UNL     1      -0.633   9.889  25.218  0.00  0.00     0.028 C 
HETATM    3  C   UNL     1      -0.189   8.602  27.151  0.00  0.00     0.014 C 
HETATM    4  C   UNL     1      -1.231   9.272  27.810  0.00  0.00     0.033 C 
HETATM    5  C   UNL     1      -2.073  10.156  27.150  0.00  0.00     0.073 A 
HETATM    6  C   UNL     1      -1.811  10.434  25.811  0.00  0.00     0.028 A 
HETATM    7  N   UNL     1      -3.113  10.661  27.809  0.00  0.00    -0.218 NA
HETATM    8  C   UNL     1      -3.984  11.404  27.134  0.00  0.00     0.200 A 
HETATM    9  N   UNL     1      -3.891  11.690  25.842  0.00  0.00    -0.212 NA
HETATM   10  C   UNL     1      -2.818  11.204  25.185  0.00  0.00     0.140 A 
ENDROOT
BRANCH   1  11
HETATM   11  C   UNL     1       1.184   8.091  25.086  0.00  0.00    -0.018 A 
HETATM   12  C   UNL     1       2.590   8.379  25.117  0.00  0.00    -0.022 A 
HETATM   13  C   UNL     1       3.475   7.591  24.343  0.00  0.00     0.010 A 
HETATM   14  C   UNL     1       3.011   6.567  23.520  0.00  0.00     0.001 A 
HETATM   15  C   UNL     1       1.657   6.283  23.477  0.00  0.00     0.001 A 
HETATM   16  C   UNL     1       0.766   7.025  24.255  0.00  0.00     0.013 A 
BRANCH  12  17
HETATM   17  C   UNL     1       3.154   9.449  26.027  0.00  0.00     0.271 C 
BRANCH  17  18
HETATM   18  N   UNL     1       4.152   9.033  27.058  0.00  0.00    -0.075 N 
HETATM   19  C   UNL     1       3.534   8.152  28.091  0.00  0.00     0.267 C 
HETATM   20  H   UNL     1       4.533   9.879  27.501  0.00  0.00     0.277 HD
HETATM   21  H   UNL     1       4.931   8.538  26.619  0.00  0.00     0.277 HD
ENDBRANCH  17  18
ENDBRANCH  12  17
ENDBRANCH   1  11
BRANCH  10  22
HETATM   22  C   UNL     1      -2.897  11.264  23.667  0.00  0.00     0.273 C 
HETATM   23  O   UNL     1      -3.471  10.346  23.064  0.00  0.00    -0.266 OA
HETATM   24  N   UNL     1      -2.419  12.352  22.943  0.00  0.00    -0.342 N 
HETATM   25  C   UNL     1      -1.632  13.524  23.354  0.00  0.00     0.139 C 
HETATM   26  C   UNL     1      -2.732  12.450  21.528  0.00  0.00     0.161 C 
HETATM   27  C   UNL     1      -2.228  14.656  22.517  0.00  0.00     0.056 C 
HETATM   28  C   UNL     1      -2.705  13.923  21.283  0.00  0.00    -0.056 C 
HETATM   29  C   UNL     1      -1.387  15.847  22.149  0.00  0.00    -0.020 C 
HETATM   30  C   UNL     1      -2.994  14.583  20.148  0.00  0.00    -0.018 C 
HETATM   31  C   UNL     1      -2.729  16.066  20.043  0.00  0.00     0.054 C 
HETATM   32  C   UNL     1      -1.659  16.522  21.014  0.00  0.00    -0.026 C 
ENDBRANCH  10  22
BRANCH   8  33
HETATM   33  N   UNL     1      -5.063  11.901  27.828  0.00  0.00    -0.271 NA
HETATM   34  H   UNL     1      -5.931  11.501  27.498  0.00  0.00     0.127 HD
HETATM   35  H   UNL     1      -4.907  11.924  28.824  0.00  0.00     0.127 HD
ENDBRANCH   8  33
TORSDOF 5
ENDMDL
MODEL 6
REMARK VINA RESULT:    -8.711      3.011      7.312
REMARK INTER + INTRA:         -12.119
REMARK INTER:                 -10.923
REMARK INTRA:                  -1.196
REMARK UNBOUND:                -1.116
REMARK  5 active torsions:
REMARK  status: ('A' for Active; 'I' for Inactive)
REMARK    1  A    between atoms: N_2  and  C_5 
REMARK    2  A    between atoms: C_5  and  C_6 
REMARK    3  A    between atoms: C_11  and  C_12 
REMARK    4  A    between atoms: C_19  and  N_20 
REMARK    5  A    between atoms: C_22  and  C_23 
REMARK       I    between atoms: C_23  and  N_25 
ROOT
HETATM    1  C   UNL     1       0.252  13.240  22.279  0.00  0.00    -0.024 C 
HETATM    2  C   UNL     1      -0.140  12.144  23.060  0.00  0.00     0.028 C 
HETATM    3  C   UNL     1      -0.784  13.868  21.577  0.00  0.00     0.014 C 
HETATM    4  C   UNL     1      -2.116  13.441  21.693  0.00  0.00     0.033 C 
HETATM    5  C   UNL     1      -2.498  12.456  22.592  0.00  0.00     0.073 A 
HETATM    6  C   UNL     1      -1.504  11.827  23.337  0.00  0.00     0.028 A 
HETATM    7  N   UNL     1      -3.793  12.188  22.735  0.00  0.00    -0.218 NA
HETATM    8  C   UNL     1      -4.158  11.335  23.687  0.00  0.00     0.200 A 
HETATM    9  N   UNL     1      -3.320  10.719  24.510  0.00  0.00    -0.212 NA
HETATM   10  C   UNL     1      -2.005  10.967  24.341  0.00  0.00     0.140 A 
ENDROOT
BRANCH   1  11
HETATM   11  C   UNL     1       1.661  13.761  22.226  0.00  0.00    -0.018 A 
HETATM   12  C   UNL     1       2.374  14.309  23.344  0.00  0.00    -0.022 A 
HETATM   13  C   UNL     1       3.682  14.813  23.153  0.00  0.00     0.010 A 
HETATM   14  C   UNL     1       4.281  14.827  21.894  0.00  0.00     0.001 A 
HETATM   15  C   UNL     1       3.601  14.307  20.806  0.00  0.00     0.001 A 
HETATM   16  C   UNL     1       2.322  13.774  20.975  0.00  0.00     0.013 A 
BRANCH  12  17
HETATM   17  C   UNL     1       1.790  14.277  24.741  0.00  0.00     0.271 C 
BRANCH  17  18
HETATM   18  N   UNL     1       0.851  15.372  25.131  0.00  0.00    -0.075 N 
HETATM   19  C   UNL     1      -0.447  14.826  25.624  0.00  0.00     0.267 C 
HETATM   20  H   UNL     1       0.692  15.970  24.312  0.00  0.00     0.277 HD
HETATM   21  H   UNL     1       1.268  15.953  25.861  0.00  0.00     0.277 HD
ENDBRANCH  17  18
ENDBRANCH  12  17
ENDBRANCH   1  11
BRANCH  10  22
HETATM   22  C   UNL     1      -1.102  10.517  25.479  0.00  0.00     0.273 C 
HETATM   23  O   UNL     1      -1.104  11.169  26.534  0.00  0.00    -0.266 OA
HETATM   24  N   UNL     1      -0.339   9.356  25.404  0.00  0.00    -0.342 N 
HETATM   25  C   UNL     1      -0.065   8.441  24.286  0.00  0.00     0.139 C 
HETATM   26  C   UNL     1       0.317   8.865  26.603  0.00  0.00     0.161 C 
HETATM   27  C   UNL     1      -0.058   7.066  24.954  0.00  0.00     0.056 C 
HETATM   28  C   UNL     1       0.406   7.395  26.355  0.00  0.00    -0.056 C 
HETATM   29  C   UNL     1       0.752   5.945  24.363  0.00  0.00    -0.020 C 
HETATM   30  C   UNL     1       0.868   6.439  27.179  0.00  0.00    -0.018 C 
HETATM   31  C   UNL     1       1.050   5.026  26.676  0.00  0.00     0.054 C 
HETATM   32  C   UNL     1       1.226   4.976  25.173  0.00  0.00    -0.026 C 
ENDBRANCH  10  22
BRANCH   8  33
HETATM   33  N   UNL     1      -5.504  11.086  23.832  0.00  0.00    -0.271 NA
HETATM   34  H   UNL     1      -5.731  10.131  23.590  0.00  0.00     0.127 HD
HETATM   35  H   UNL     1      -5.876  11.452  24.695  0.00  0.00     0.127 HD
ENDBRANCH   8  33
TORSDOF 5
ENDMDL
MODEL 7
REMARK VINA RESULT:    -8.521      3.087      4.450
REMARK INTER + INTRA:         -11.879
REMARK INTER:                 -10.517
REMARK INTRA:                  -1.362
REMARK UNBOUND:                -1.116
REMARK  5 active torsions:
REMARK  status: ('A' for Active; 'I' for Inactive)
REMARK    1  A    between atoms: N_2  and  C_5 
REMARK    2  A    between atoms: C_5  and  C_6 
REMARK    3  A    between atoms: C_11  and  C_12 
REMARK    4  A    between atoms: C_19  and  N_20 
REMARK    5  A    between atoms: C_22  and  C_23 
REMARK       I    between atoms: C_23  and  N_25 
ROOT
HETATM    1  C   UNL     1      -1.167  10.427  24.615  0.00  0.00    -0.024 C 
HETATM    2  C   UNL     1      -1.248  11.800  24.891  0.00  0.00     0.028 C 
HETATM    3  C   UNL     1      -2.251   9.901  23.901  0.00  0.00     0.014 C 
HETATM    4  C   UNL     1      -3.310  10.714  23.468  0.00  0.00     0.033 C 
HETATM    5  C   UNL     1      -3.289  12.093  23.617  0.00  0.00     0.073 A 
HETATM    6  C   UNL     1      -2.213  12.663  24.292  0.00  0.00     0.028 A 
HETATM    7  N   UNL     1      -4.270  12.810  23.075  0.00  0.00    -0.218 NA
HETATM    8  C   UNL     1      -4.176  14.136  23.113  0.00  0.00     0.200 A 
HETATM    9  N   UNL     1      -3.172  14.805  23.663  0.00  0.00    -0.212 NA
HETATM   10  C   UNL     1      -2.195  14.076  24.241  0.00  0.00     0.140 A 
ENDROOT
BRANCH   1  11
HETATM   11  C   UNL     1       0.010   9.572  24.993  0.00  0.00    -0.018 A 
HETATM   12  C   UNL     1       0.305   9.130  26.327  0.00  0.00    -0.022 A 
HETATM   13  C   UNL     1       1.475   8.369  26.561  0.00  0.00     0.010 A 
HETATM   14  C   UNL     1       2.368   8.070  25.534  0.00  0.00     0.001 A 
HETATM   15  C   UNL     1       2.097   8.495  24.245  0.00  0.00     0.001 A 
HETATM   16  C   UNL     1       0.934   9.221  23.982  0.00  0.00     0.013 A 
BRANCH  12  17
HETATM   17  C   UNL     1      -0.653   9.386  27.471  0.00  0.00     0.271 C 
BRANCH  17  18
HETATM   18  N   UNL     1      -0.698   8.387  28.581  0.00  0.00    -0.075 N 
HETATM   19  C   UNL     1      -0.191   8.968  29.858  0.00  0.00     0.267 C 
HETATM   20  H   UNL     1      -0.126   7.578  28.312  0.00  0.00     0.277 HD
HETATM   21  H   UNL     1      -1.655   8.056  28.721  0.00  0.00     0.277 HD
ENDBRANCH  17  18
ENDBRANCH  12  17
ENDBRANCH   1  11
BRANCH  10  22
HETATM   22  C   UNL     1      -0.919  14.835  24.571  0.00  0.00     0.273 C 
HETATM   23  O   UNL     1      -0.782  15.300  25.712  0.00  0.00    -0.266 OA
HETATM   24  N   UNL     1       0.128  14.952  23.663  0.00  0.00    -0.342 N 
HETATM   25  C   UNL     1       0.229  14.592  22.241  0.00  0.00     0.139 C 
HETATM   26  C   UNL     1       1.400  15.485  24.118  0.00  0.00     0.161 C 
HETATM   27  C   UNL     1       1.659  14.067  22.114  0.00  0.00     0.056 C 
HETATM   28  C   UNL     1       2.380  14.844  23.193  0.00  0.00    -0.056 C 
HETATM   29  C   UNL     1       2.384  14.163  20.800  0.00  0.00    -0.020 C 
HETATM   30  C   UNL     1       3.721  14.935  23.208  0.00  0.00    -0.018 C 
HETATM   31  C   UNL     1       4.535  14.361  22.072  0.00  0.00     0.054 C 
HETATM   32  C   UNL     1       3.729  14.255  20.793  0.00  0.00    -0.026 C 
ENDBRANCH  10  22
BRANCH   8  33
HETATM   33  N   UNL     1      -5.190  14.859  22.529  0.00  0.00    -0.271 NA
HETATM   34  H   UNL     1      -4.827  15.611  21.959  0.00  0.00     0.127 HD
HETATM   35  H   UNL     1      -5.905  14.271  22.129  0.00  0.00     0.127 HD
ENDBRANCH   8  33
TORSDOF 5
ENDMDL
MODEL 8
REMARK VINA RESULT:    -8.503      2.948      4.872
REMARK INTER + INTRA:         -11.857
REMARK INTER:                 -10.675
REMARK INTRA:                  -1.181
REMARK UNBOUND:                -1.116
REMARK  5 active torsions:
REMARK  status: ('A' for Active; 'I' for Inactive)
REMARK    1  A    between atoms: N_2  and  C_5 
REMARK    2  A    between atoms: C_5  and  C_6 
REMARK    3  A    between atoms: C_11  and  C_12 
REMARK    4  A    between atoms: C_19  and  N_20 
REMARK    5  A    between atoms: C_22  and  C_23 
REMARK       I    between atoms: C_23  and  N_25 
ROOT
HETATM    1  C   UNL     1      -2.340  11.100  25.572  0.00  0.00    -0.024 C 
HETATM    2  C   UNL     1      -2.255  12.478  25.324  0.00  0.00     0.028 C 
HETATM    3  C   UNL     1      -3.273  10.413  24.786  0.00  0.00     0.014 C 
HETATM    4  C   UNL     1      -4.027  11.067  23.800  0.00  0.00     0.033 C 
HETATM    5  C   UNL     1      -3.812  12.397  23.468  0.00  0.00     0.073 A 
HETATM    6  C   UNL     1      -2.868  13.111  24.202  0.00  0.00     0.028 A 
HETATM    7  N   UNL     1      -4.480  12.916  22.441  0.00  0.00    -0.218 NA
HETATM    8  C   UNL     1      -4.175  14.150  22.052  0.00  0.00     0.200 A 
HETATM    9  N   UNL     1      -3.251  14.914  22.620  0.00  0.00    -0.212 NA
HETATM   10  C   UNL     1      -2.598  14.397  23.681  0.00  0.00     0.140 A 
ENDROOT
BRANCH   1  11
HETATM   11  C   UNL     1      -1.466  10.379  26.560  0.00  0.00    -0.018 A 
HETATM   12  C   UNL     1      -0.271   9.659  26.224  0.00  0.00    -0.022 A 
HETATM   13  C   UNL     1       0.438   8.978  27.241  0.00  0.00     0.010 A 
HETATM   14  C   UNL     1      -0.020   8.955  28.558  0.00  0.00     0.001 A 
HETATM   15  C   UNL     1      -1.174   9.640  28.894  0.00  0.00     0.001 A 
HETATM   16  C   UNL     1      -1.874  10.346  27.914  0.00  0.00     0.013 A 
BRANCH  12  17
HETATM   17  C   UNL     1       0.296   9.689  24.820  0.00  0.00     0.271 C 
BRANCH  17  18
HETATM   18  N   UNL     1      -0.121   8.609  23.875  0.00  0.00    -0.075 N 
HETATM   19  C   UNL     1       0.868   7.492  23.853  0.00  0.00     0.267 C 
HETATM   20  H   UNL     1      -0.212   9.015  22.936  0.00  0.00     0.277 HD
HETATM   21  H   UNL     1      -1.036   8.239  24.141  0.00  0.00     0.277 HD
ENDBRANCH  17  18
ENDBRANCH  12  17
ENDBRANCH   1  11
BRANCH  10  22
HETATM   22  C   UNL     1      -1.342  15.143  24.105  0.00  0.00     0.273 C 
HETATM   23  O   UNL     1      -1.317  15.674  25.224  0.00  0.00    -0.266 OA
HETATM   24  N   UNL     1      -0.199  15.178  23.313  0.00  0.00    -0.342 N 
HETATM   25  C   UNL     1       0.046  14.728  21.935  0.00  0.00     0.139 C 
HETATM   26  C   UNL     1       1.032  15.707  23.876  0.00  0.00     0.161 C 
HETATM   27  C   UNL     1       1.464  14.162  21.999  0.00  0.00     0.056 C 
HETATM   28  C   UNL     1       2.087  14.986  23.104  0.00  0.00    -0.056 C 
HETATM   29  C   UNL     1       2.331  14.158  20.770  0.00  0.00    -0.020 C 
HETATM   30  C   UNL     1       3.420  15.045  23.263  0.00  0.00    -0.018 C 
HETATM   31  C   UNL     1       4.335  14.382  22.259  0.00  0.00     0.054 C 
HETATM   32  C   UNL     1       3.671  14.217  20.908  0.00  0.00    -0.026 C 
ENDBRANCH  10  22
BRANCH   8  33
HETATM   33  N   UNL     1      -4.863  14.662  20.976  0.00  0.00    -0.271 NA
HETATM   34  H   UNL     1      -4.329  15.378  20.503  0.00  0.00     0.127 HD
HETATM   35  H   UNL     1      -5.287  13.943  20.409  0.00  0.00     0.127 HD
ENDBRANCH   8  33
TORSDOF 5
ENDMDL
MODEL 9
REMARK VINA RESULT:    -8.353      3.259      7.363
REMARK INTER + INTRA:         -11.666
REMARK INTER:                 -10.550
REMARK INTRA:                  -1.116
REMARK UNBOUND:                -1.116
REMARK  5 active torsions:
REMARK  status: ('A' for Active; 'I' for Inactive)
REMARK    1  A    between atoms: N_2  and  C_5 
REMARK    2  A    between atoms: C_5  and  C_6 
REMARK    3  A    between atoms: C_11  and  C_12 
REMARK    4  A    between atoms: C_19  and  N_20 
REMARK    5  A    between atoms: C_22  and  C_23 
REMARK       I    between atoms: C_23  and  N_25 
ROOT
HETATM    1  C   UNL     1       0.421  14.975  21.974  0.00  0.00    -0.024 C 
HETATM    2  C   UNL     1      -0.401  13.866  21.728  0.00  0.00     0.028 C 
HETATM    3  C   UNL     1      -0.236  16.212  21.971  0.00  0.00     0.014 C 
HETATM    4  C   UNL     1      -1.622  16.308  21.776  0.00  0.00     0.033 C 
HETATM    5  C   UNL     1      -2.434  15.186  21.692  0.00  0.00     0.073 A 
HETATM    6  C   UNL     1      -1.826  13.933  21.724  0.00  0.00     0.028 A 
HETATM    7  N   UNL     1      -3.752  15.354  21.629  0.00  0.00    -0.218 NA
HETATM    8  C   UNL     1      -4.526  14.274  21.676  0.00  0.00     0.200 A 
HETATM    9  N   UNL     1      -4.080  13.029  21.775  0.00  0.00    -0.212 NA
HETATM   10  C   UNL     1      -2.743  12.860  21.806  0.00  0.00     0.140 A 
ENDROOT
BRANCH   1  11
HETATM   11  C   UNL     1       1.889  14.870  22.278  0.00  0.00    -0.018 A 
HETATM   12  C   UNL     1       2.939  15.037  21.314  0.00  0.00    -0.022 A 
HETATM   13  C   UNL     1       4.284  14.862  21.716  0.00  0.00     0.010 A 
HETATM   14  C   UNL     1       4.613  14.491  23.019  0.00  0.00     0.001 A 
HETATM   15  C   UNL     1       3.609  14.321  23.957  0.00  0.00     0.001 A 
HETATM   16  C   UNL     1       2.276  14.519  23.593  0.00  0.00     0.013 A 
BRANCH  12  17
HETATM   17  C   UNL     1       2.643  15.484  19.898  0.00  0.00     0.271 C 
BRANCH  17  18
HETATM   18  N   UNL     1       3.058  16.863  19.499  0.00  0.00    -0.075 N 
HETATM   19  C   UNL     1       2.230  17.900  20.181  0.00  0.00     0.267 C 
HETATM   20  H   UNL     1       2.960  16.949  18.480  0.00  0.00     0.277 HD
HETATM   21  H   UNL     1       4.042  17.017  19.728  0.00  0.00     0.277 HD
ENDBRANCH  17  18
ENDBRANCH  12  17
ENDBRANCH   1  11
BRANCH  10  22
HETATM   22  C   UNL     1      -2.266  11.483  22.240  0.00  0.00     0.273 C 
HETATM   23  O   UNL     1      -1.709  10.756  21.405  0.00  0.00    -0.266 OA
HETATM   24  N   UNL     1      -2.362  11.047  23.558  0.00  0.00    -0.342 N 
HETATM   25  C   UNL     1      -3.032  11.630  24.730  0.00  0.00     0.139 C 
HETATM   26  C   UNL     1      -1.683   9.824  23.948  0.00  0.00     0.161 C 
HETATM   27  C   UNL     1      -2.068  11.318  25.875  0.00  0.00     0.056 C 
HETATM   28  C   UNL     1      -1.411  10.042  25.399  0.00  0.00    -0.056 C 
HETATM   29  C   UNL     1      -2.587  11.172  27.279  0.00  0.00    -0.020 C 
HETATM   30  C   UNL     1      -0.739   9.246  26.249  0.00  0.00    -0.018 C 
HETATM   31  C   UNL     1      -0.729   9.550  27.728  0.00  0.00     0.054 C 
HETATM   32  C   UNL     1      -1.926  10.378  28.146  0.00  0.00    -0.026 C 
ENDBRANCH  10  22
BRANCH   8  33
HETATM   33  N   UNL     1      -5.888  14.470  21.630  0.00  0.00    -0.271 NA
HETATM   34  H   UNL     1      -6.373  13.844  22.258  0.00  0.00     0.127 HD
HETATM   35  H   UNL     1      -6.141  15.446  21.654  0.00  0.00     0.127 HD
ENDBRANCH   8  33
TORSDOF 5
ENDMDL
