REMARK  5 active torsions:
REMARK  status: ('A' for Active; 'I' for Inactive)
REMARK    1  A    between atoms: N_2  and  C_5 
REMARK    2  A    between atoms: C_5  and  C_6 
REMARK    3  A    between atoms: C_11  and  C_12 
REMARK    4  A    between atoms: C_19  and  N_20 
REMARK    5  A    between atoms: C_22  and  C_23 
REMARK       I    between atoms: C_23  and  N_25 
ROOT
HETATM    1  C   UNL     1       4.409   3.638   0.756  0.00  0.00    -0.024 C 
HETATM    2  C   UNL     1       5.109   4.837   0.955  0.00  0.00     0.028 C 
HETATM    3  C   UNL     1       3.019   3.774   0.652  0.00  0.00     0.014 C 
HETATM    4  C   UNL     1       2.397   5.031   0.704  0.00  0.00     0.033 C 
HETATM    5  C   UNL     1       3.124   6.212   0.744  0.00  0.00     0.073 A 
HETATM    6  C   UNL     1       4.512   6.125   0.814  0.00  0.00     0.028 A 
HETATM    7  N   UNL     1       2.470   7.368   0.669  0.00  0.00    -0.218 NA
HETATM    8  C   UNL     1       3.181   8.488   0.580  0.00  0.00     0.200 A 
HETATM    9  N   UNL     1       4.506   8.542   0.567  0.00  0.00    -0.212 NA
HETATM   10  C   UNL     1       5.166   7.371   0.676  0.00  0.00     0.140 A 
ENDROOT
BRANCH   1  11
HETATM   11  C   UNL     1       5.078   2.301   0.604  0.00  0.00    -0.018 A 
HETATM   12  C   UNL     1       6.335   2.085  -0.054  0.00  0.00    -0.022 A 
HETATM   13  C   UNL     1       6.836   0.767  -0.176  0.00  0.00     0.010 A 
HETATM   14  C   UNL     1       6.118  -0.332   0.293  0.00  0.00     0.001 A 
HETATM   15  C   UNL     1       4.902  -0.137   0.924  0.00  0.00     0.001 A 
HETATM   16  C   UNL     1       4.401   1.156   1.085  0.00  0.00     0.013 A 
BRANCH  12  17
HETATM   17  C   UNL     1       7.178   3.245  -0.541  0.00  0.00     0.271 C 
BRANCH  17  18
HETATM   18  N   UNL     1       8.137   2.991  -1.658  0.00  0.00    -0.075 N 
HETATM   19  C   UNL     1       8.874   4.232  -2.036  0.00  0.00     0.267 C 
HETATM   20  H   UNL     1       7.609   2.637  -2.465  0.00  0.00     0.277 HD
HETATM   21  H   UNL     1       8.811   2.271  -1.390  0.00  0.00     0.277 HD
ENDBRANCH  17  18
ENDBRANCH  12  17
ENDBRANCH   1  11
BRANCH  10  22
HETATM   22  C   UNL     1       6.648   7.420   0.337  0.00  0.00     0.273 C 
HETATM   23  O   UNL     1       7.196   6.390  -0.082  0.00  0.00    -0.266 OA
HETATM   24  N   UNL     1       7.385   8.598   0.405  0.00  0.00    -0.342 N 
HETATM   25  C   UNL     1       7.048   9.928   0.933  0.00  0.00     0.139 C 
HETATM   26  C   UNL     1       8.727   8.623  -0.150  0.00  0.00     0.161 C 
HETATM   27  C   UNL     1       7.726  10.878  -0.054  0.00  0.00     0.056 C 
HETATM   28  C   UNL     1       8.903  10.056  -0.530  0.00  0.00    -0.056 C 
HETATM   29  C   UNL     1       8.164  12.245   0.394  0.00  0.00    -0.020 C 
HETATM   30  C   UNL     1       9.946  10.629  -1.155  0.00  0.00    -0.018 C 
HETATM   31  C   UNL     1      10.021  12.132  -1.287  0.00  0.00     0.054 C 
HETATM   32  C   UNL     1       9.209  12.837  -0.220  0.00  0.00    -0.026 C 
ENDBRANCH  10  22
BRANCH   8  33
HETATM   33  N   UNL     1       2.486   9.672   0.483  0.00  0.00    -0.271 NA
HETATM   34  H   UNL     1       1.548   9.581   0.849  0.00  0.00     0.127 HD
HETATM   35  H   UNL     1       3.030  10.467   0.781  0.00  0.00     0.127 HD
ENDBRANCH   8  33
TORSDOF 5
