MODEL 1
REMARK VINA RESULT:    -5.676      0.000      0.000
REMARK INTER + INTRA:          -8.352
REMARK INTER:                  -7.459
REMARK INTRA:                  -0.893
REMARK UNBOUND:                -1.017
REMARK  5 active torsions:
REMARK  status: ('A' for Active; 'I' for Inactive)
REMARK    1  A    between atoms: N8_1  and  C24_2 
REMARK    2  A    between atoms: N8_1  and  C7_8 
REMARK    3  A    between atoms: C2_13  and  N1_14 
REMARK    4  A    between atoms: N1_14  and  C17_15 
REMARK    5  A    between atoms: C14_16  and  C13_19 
ROOT
ATOM      1  C17 FTA A   1       5.501  18.447  20.518  1.00  0.00     0.142 C 
ATOM      2  C14 FTA A   1       5.367  17.777  19.357  1.00  0.00     0.158 C 
ATOM      3  C18 FTA A   1       4.050  17.479  18.836  1.00  0.00     0.069 C 
ATOM      4  N21 FTA A   1       2.930  17.259  18.568  1.00  0.00    -0.197 NA
ENDROOT
BRANCH   2   5
ATOM      5  C13 FTA A   1       6.578  17.364  18.611  1.00  0.00     0.197 A 
ATOM      6  N15 FTA A   1       7.851  17.916  18.739  1.00  0.00    -0.093 NA
ATOM      7  N19 FTA A   1       8.679  17.272  17.829  1.00  0.00    -0.231 N 
ATOM      8  N20 FTA A   1       7.940  16.327  17.132  1.00  0.00    -0.017 NA
ATOM      9  H15 FTA A   1       9.681  17.465  17.693  1.00  0.00     0.200 HD
ATOM     10  N16 FTA A   1       6.640  16.375  17.623  1.00  0.00    -0.090 NA
ENDBRANCH   2   5
BRANCH   1  11
ATOM     11  N1  FTA A   1       6.272  17.921  21.489  1.00  0.00    -0.389 N 
ATOM     12  H11 FTA A   1       5.963  17.036  21.916  1.00  0.00     0.159 HD
BRANCH  11  13
ATOM     13  C2  FTA A   1       7.482  18.493  21.969  1.00  0.00     0.028 A 
ATOM     14  C4  FTA A   1       8.605  17.721  22.255  1.00  0.00     0.031 A 
ATOM     15  C6  FTA A   1       9.679  18.309  22.938  1.00  0.00     0.031 A 
ATOM     16  C7  FTA A   1       9.658  19.641  23.342  1.00  0.00     0.032 A 
ATOM     17  C5  FTA A   1       8.546  20.402  23.028  1.00  0.00     0.031 A 
ATOM     18  C3  FTA A   1       7.465  19.834  22.364  1.00  0.00     0.031 A 
BRANCH  16  19
ATOM     19  N8  FTA A   1      10.632  20.197  24.210  1.00  0.00    -0.356 N 
ATOM     20  H1  FTA A   1      11.396  20.737  23.778  1.00  0.00     0.166 HD
BRANCH  19  21
ATOM     21  C24 FTA A   1      10.642  20.070  25.632  1.00  0.00     0.032 A 
ATOM     22  C26 FTA A   1       9.496  19.787  26.338  1.00  0.00     0.029 A 
ATOM     23  C28 FTA A   1       9.537  19.848  27.718  1.00  0.00     0.002 A 
ATOM     24  C30 FTA A   1      10.694  20.152  28.414  1.00  0.00     0.000 A 
ATOM     25  C29 FTA A   1      11.851  20.397  27.724  1.00  0.00     0.002 A 
ATOM     26  C27 FTA A   1      11.812  20.340  26.326  1.00  0.00     0.029 A 
ENDBRANCH  19  21
ENDBRANCH  16  19
ENDBRANCH  11  13
ENDBRANCH   1  11
TORSDOF 5
ENDMDL
MODEL 2
REMARK VINA RESULT:    -5.638      5.473      9.870
REMARK INTER + INTRA:          -8.303
REMARK INTER:                  -7.171
REMARK INTRA:                  -1.132
REMARK UNBOUND:                -1.017
REMARK  5 active torsions:
REMARK  status: ('A' for Active; 'I' for Inactive)
REMARK    1  A    between atoms: N8_1  and  C24_2 
REMARK    2  A    between atoms: N8_1  and  C7_8 
REMARK    3  A    between atoms: C2_13  and  N1_14 
REMARK    4  A    between atoms: N1_14  and  C17_15 
REMARK    5  A    between atoms: C14_16  and  C13_19 
ROOT
ATOM      1  C17 FTA A   1       9.088  17.879  18.629  1.00  0.00     0.142 C 
ATOM      2  C14 FTA A   1       9.774  18.787  17.907  1.00  0.00     0.158 C 
ATOM      3  C18 FTA A   1       9.432  20.191  17.989  1.00  0.00     0.069 C 
ATOM      4  N21 FTA A   1       9.010  21.278  18.110  1.00  0.00    -0.197 NA
ENDROOT
BRANCH   2   5
ATOM      5  C13 FTA A   1      10.889  18.337  17.042  1.00  0.00     0.197 A 
ATOM      6  N15 FTA A   1      10.878  17.230  16.195  1.00  0.00    -0.093 NA
ATOM      7  N19 FTA A   1      12.133  17.142  15.607  1.00  0.00    -0.231 N 
ATOM      8  N20 FTA A   1      12.929  18.177  16.076  1.00  0.00    -0.017 NA
ATOM      9  H15 FTA A   1      12.426  16.423  14.930  1.00  0.00     0.200 HD
ATOM     10  N16 FTA A   1      12.156  18.925  16.958  1.00  0.00    -0.090 NA
ENDBRANCH   2   5
BRANCH   1  11
ATOM     11  N1  FTA A   1       8.554  16.814  18.000  1.00  0.00    -0.389 N 
ATOM     12  H11 FTA A   1       9.101  15.941  17.996  1.00  0.00     0.159 HD
BRANCH  11  13
ATOM     13  C2  FTA A   1       7.295  16.804  17.341  1.00  0.00     0.028 A 
ATOM     14  C4  FTA A   1       7.183  16.863  15.954  1.00  0.00     0.031 A 
ATOM     15  C6  FTA A   1       5.923  17.081  15.382  1.00  0.00     0.031 A 
ATOM     16  C7  FTA A   1       4.777  17.243  16.156  1.00  0.00     0.032 A 
ATOM     17  C5  FTA A   1       4.900  17.157  17.532  1.00  0.00     0.031 A 
ATOM     18  C3  FTA A   1       6.143  16.955  18.119  1.00  0.00     0.031 A 
BRANCH  16  19
ATOM     19  N8  FTA A   1       3.537  17.670  15.616  1.00  0.00    -0.356 N 
ATOM     20  H1  FTA A   1       3.379  18.686  15.540  1.00  0.00     0.166 HD
BRANCH  19  21
ATOM     21  C24 FTA A   1       2.489  16.809  15.168  1.00  0.00     0.032 A 
ATOM     22  C26 FTA A   1       1.570  16.279  16.042  1.00  0.00     0.029 A 
ATOM     23  C28 FTA A   1       0.691  15.320  15.576  1.00  0.00     0.002 A 
ATOM     24  C30 FTA A   1       0.681  14.898  14.258  1.00  0.00     0.000 A 
ATOM     25  C29 FTA A   1       1.567  15.447  13.369  1.00  0.00     0.002 A 
ATOM     26  C27 FTA A   1       2.461  16.416  13.838  1.00  0.00     0.029 A 
ENDBRANCH  19  21
ENDBRANCH  16  19
ENDBRANCH  11  13
ENDBRANCH   1  11
TORSDOF 5
ENDMDL
MODEL 3
REMARK VINA RESULT:    -5.523      3.888      9.913
REMARK INTER + INTRA:          -8.154
REMARK INTER:                  -7.256
REMARK INTRA:                  -0.898
REMARK UNBOUND:                -1.017
REMARK  5 active torsions:
REMARK  status: ('A' for Active; 'I' for Inactive)
REMARK    1  A    between atoms: N8_1  and  C24_2 
REMARK    2  A    between atoms: N8_1  and  C7_8 
REMARK    3  A    between atoms: C2_13  and  N1_14 
REMARK    4  A    between atoms: N1_14  and  C17_15 
REMARK    5  A    between atoms: C14_16  and  C13_19 
ROOT
ATOM      1  C17 FTA A   1       7.355  18.760  19.014  1.00  0.00     0.142 C 
ATOM      2  C14 FTA A   1       8.656  18.627  19.340  1.00  0.00     0.158 C 
ATOM      3  C18 FTA A   1       9.635  18.331  18.316  1.00  0.00     0.069 C 
ATOM      4  N21 FTA A   1      10.303  18.036  17.399  1.00  0.00    -0.197 NA
ENDROOT
BRANCH   2   5
ATOM      5  C13 FTA A   1       9.076  18.801  20.749  1.00  0.00     0.197 A 
ATOM      6  N15 FTA A   1       9.643  19.947  21.303  1.00  0.00    -0.093 NA
ATOM      7  N19 FTA A   1       9.927  19.672  22.634  1.00  0.00    -0.231 N 
ATOM      8  N20 FTA A   1       9.547  18.368  22.920  1.00  0.00    -0.017 NA
ATOM      9  H15 FTA A   1      10.352  20.330  23.303  1.00  0.00     0.200 HD
ATOM     10  N16 FTA A   1       9.010  17.830  21.755  1.00  0.00    -0.090 NA
ENDBRANCH   2   5
BRANCH   1  11
ATOM     11  N1  FTA A   1       6.439  18.032  19.681  1.00  0.00    -0.389 N 
ATOM     12  H11 FTA A   1       6.685  17.709  20.628  1.00  0.00     0.159 HD
BRANCH  11  13
ATOM     13  C2  FTA A   1       5.158  17.676  19.178  1.00  0.00     0.028 A 
ATOM     14  C4  FTA A   1       4.922  16.459  18.545  1.00  0.00     0.031 A 
ATOM     15  C6  FTA A   1       3.708  16.266  17.872  1.00  0.00     0.031 A 
ATOM     16  C7  FTA A   1       2.729  17.254  17.815  1.00  0.00     0.032 A 
ATOM     17  C5  FTA A   1       2.967  18.449  18.471  1.00  0.00     0.031 A 
ATOM     18  C3  FTA A   1       4.170  18.665  19.132  1.00  0.00     0.031 A 
BRANCH  16  19
ATOM     19  N8  FTA A   1       1.591  17.163  16.972  1.00  0.00    -0.356 N 
ATOM     20  H1  FTA A   1       0.767  17.724  17.229  1.00  0.00     0.166 HD
BRANCH  19  21
ATOM     21  C24 FTA A   1       1.495  16.356  15.798  1.00  0.00     0.032 A 
ATOM     22  C26 FTA A   1       2.142  16.699  14.634  1.00  0.00     0.029 A 
ATOM     23  C28 FTA A   1       1.871  15.975  13.489  1.00  0.00     0.002 A 
ATOM     24  C30 FTA A   1       0.998  14.900  13.478  1.00  0.00     0.000 A 
ATOM     25  C29 FTA A   1       0.377  14.525  14.639  1.00  0.00     0.002 A 
ATOM     26  C27 FTA A   1       0.646  15.259  15.800  1.00  0.00     0.029 A 
ENDBRANCH  19  21
ENDBRANCH  16  19
ENDBRANCH  11  13
ENDBRANCH   1  11
TORSDOF 5
ENDMDL
MODEL 4
REMARK VINA RESULT:    -5.478      2.216      8.376
REMARK INTER + INTRA:          -8.095
REMARK INTER:                  -7.114
REMARK INTRA:                  -0.982
REMARK UNBOUND:                -1.017
REMARK  5 active torsions:
REMARK  status: ('A' for Active; 'I' for Inactive)
REMARK    1  A    between atoms: N8_1  and  C24_2 
REMARK    2  A    between atoms: N8_1  and  C7_8 
REMARK    3  A    between atoms: C2_13  and  N1_14 
REMARK    4  A    between atoms: N1_14  and  C17_15 
REMARK    5  A    between atoms: C14_16  and  C13_19 
ROOT
ATOM      1  C17 FTA A   1       8.337  20.171  25.113  1.00  0.00     0.142 C 
ATOM      2  C14 FTA A   1       8.818  20.488  26.332  1.00  0.00     0.158 C 
ATOM      3  C18 FTA A   1       7.924  20.962  27.366  1.00  0.00     0.069 C 
ATOM      4  N21 FTA A   1       7.097  21.385  28.082  1.00  0.00    -0.197 NA
ENDROOT
BRANCH   2   5
ATOM      5  C13 FTA A   1      10.264  20.332  26.607  1.00  0.00     0.197 A 
ATOM      6  N15 FTA A   1      11.307  20.682  25.751  1.00  0.00    -0.093 NA
ATOM      7  N19 FTA A   1      12.496  20.327  26.374  1.00  0.00    -0.231 N 
ATOM      8  N20 FTA A   1      12.212  19.757  27.607  1.00  0.00    -0.017 NA
ATOM      9  H15 FTA A   1      13.439  20.465  25.984  1.00  0.00     0.200 HD
ATOM     10  N16 FTA A   1      10.829  19.769  27.757  1.00  0.00    -0.090 NA
ENDBRANCH   2   5
BRANCH   1  11
ATOM     11  N1  FTA A   1       8.900  20.731  24.025  1.00  0.00    -0.389 N 
ATOM     12  H11 FTA A   1       9.131  21.734  24.071  1.00  0.00     0.159 HD
BRANCH  11  13
ATOM     13  C2  FTA A   1       9.201  20.042  22.818  1.00  0.00     0.028 A 
ATOM     14  C4  FTA A   1       9.391  20.711  21.611  1.00  0.00     0.031 A 
ATOM     15  C6  FTA A   1       9.454  19.967  20.425  1.00  0.00     0.031 A 
ATOM     16  C7  FTA A   1       9.332  18.580  20.413  1.00  0.00     0.032 A 
ATOM     17  C5  FTA A   1       9.169  17.929  21.623  1.00  0.00     0.031 A 
ATOM     18  C3  FTA A   1       9.090  18.649  22.809  1.00  0.00     0.031 A 
BRANCH  16  19
ATOM     19  N8  FTA A   1       9.184  17.831  19.218  1.00  0.00    -0.356 N 
ATOM     20  H1  FTA A   1      10.036  17.423  18.807  1.00  0.00     0.166 HD
BRANCH  19  21
ATOM     21  C24 FTA A   1       7.951  17.594  18.539  1.00  0.00     0.032 A 
ATOM     22  C26 FTA A   1       6.753  18.045  19.041  1.00  0.00     0.029 A 
ATOM     23  C28 FTA A   1       5.583  17.636  18.430  1.00  0.00     0.002 A 
ATOM     24  C30 FTA A   1       5.574  16.818  17.313  1.00  0.00     0.000 A 
ATOM     25  C29 FTA A   1       6.762  16.394  16.780  1.00  0.00     0.002 A 
ATOM     26  C27 FTA A   1       7.949  16.803  17.399  1.00  0.00     0.029 A 
ENDBRANCH  19  21
ENDBRANCH  16  19
ENDBRANCH  11  13
ENDBRANCH   1  11
TORSDOF 5
ENDMDL
MODEL 5
REMARK VINA RESULT:    -5.475      1.593      2.095
REMARK INTER + INTRA:          -8.092
REMARK INTER:                  -7.151
REMARK INTRA:                  -0.941
REMARK UNBOUND:                -1.017
REMARK  5 active torsions:
REMARK  status: ('A' for Active; 'I' for Inactive)
REMARK    1  A    between atoms: N8_1  and  C24_2 
REMARK    2  A    between atoms: N8_1  and  C7_8 
REMARK    3  A    between atoms: C2_13  and  N1_14 
REMARK    4  A    between atoms: N1_14  and  C17_15 
REMARK    5  A    between atoms: C14_16  and  C13_19 
ROOT
ATOM      1  C17 FTA A   1       6.963  18.160  19.052  1.00  0.00     0.142 C 
ATOM      2  C14 FTA A   1       6.426  17.298  18.166  1.00  0.00     0.158 C 
ATOM      3  C18 FTA A   1       5.218  16.573  18.498  1.00  0.00     0.069 C 
ATOM      4  N21 FTA A   1       4.277  16.016  18.922  1.00  0.00    -0.197 NA
ENDROOT
BRANCH   2   5
ATOM      5  C13 FTA A   1       7.073  17.111  16.847  1.00  0.00     0.197 A 
ATOM      6  N15 FTA A   1       8.385  17.447  16.520  1.00  0.00    -0.093 NA
ATOM      7  N19 FTA A   1       8.568  17.152  15.175  1.00  0.00    -0.231 N 
ATOM      8  N20 FTA A   1       7.389  16.638  14.657  1.00  0.00    -0.017 NA
ATOM      9  H15 FTA A   1       9.442  17.291  14.647  1.00  0.00     0.200 HD
ATOM     10  N16 FTA A   1       6.463  16.602  15.695  1.00  0.00    -0.090 NA
ENDBRANCH   2   5
BRANCH   1  11
ATOM     11  N1  FTA A   1       8.262  18.029  19.383  1.00  0.00    -0.389 N 
ATOM     12  H11 FTA A   1       8.878  17.546  18.712  1.00  0.00     0.159 HD
BRANCH  11  13
ATOM     13  C2  FTA A   1       8.849  18.505  20.587  1.00  0.00     0.028 A 
ATOM     14  C4  FTA A   1       8.893  17.734  21.746  1.00  0.00     0.031 A 
ATOM     15  C6  FTA A   1       9.271  18.340  22.951  1.00  0.00     0.031 A 
ATOM     16  C7  FTA A   1       9.604  19.690  23.029  1.00  0.00     0.032 A 
ATOM     17  C5  FTA A   1       9.581  20.436  21.864  1.00  0.00     0.031 A 
ATOM     18  C3  FTA A   1       9.195  19.857  20.661  1.00  0.00     0.031 A 
BRANCH  16  19
ATOM     19  N8  FTA A   1       9.785  20.368  24.261  1.00  0.00    -0.356 N 
ATOM     20  H1  FTA A   1      10.557  21.049  24.317  1.00  0.00     0.166 HD
BRANCH  19  21
ATOM     21  C24 FTA A   1       8.987  20.185  25.431  1.00  0.00     0.032 A 
ATOM     22  C26 FTA A   1       7.644  20.479  25.440  1.00  0.00     0.029 A 
ATOM     23  C28 FTA A   1       6.967  20.445  26.644  1.00  0.00     0.002 A 
ATOM     24  C30 FTA A   1       7.584  20.097  27.833  1.00  0.00     0.000 A 
ATOM     25  C29 FTA A   1       8.912  19.765  27.832  1.00  0.00     0.002 A 
ATOM     26  C27 FTA A   1       9.602  19.802  26.614  1.00  0.00     0.029 A 
ENDBRANCH  19  21
ENDBRANCH  16  19
ENDBRANCH  11  13
ENDBRANCH   1  11
TORSDOF 5
ENDMDL
MODEL 6
REMARK VINA RESULT:    -5.461      3.488      9.692
REMARK INTER + INTRA:          -8.074
REMARK INTER:                  -6.991
REMARK INTRA:                  -1.083
REMARK UNBOUND:                -1.017
REMARK  5 active torsions:
REMARK  status: ('A' for Active; 'I' for Inactive)
REMARK    1  A    between atoms: N8_1  and  C24_2 
REMARK    2  A    between atoms: N8_1  and  C7_8 
REMARK    3  A    between atoms: C2_13  and  N1_14 
REMARK    4  A    between atoms: N1_14  and  C17_15 
REMARK    5  A    between atoms: C14_16  and  C13_19 
ROOT
ATOM      1  C17 FTA A   1       6.921  18.253  20.508  1.00  0.00     0.142 C 
ATOM      2  C14 FTA A   1       8.249  18.346  20.297  1.00  0.00     0.158 C 
ATOM      3  C18 FTA A   1       9.128  18.766  21.367  1.00  0.00     0.069 C 
ATOM      4  N21 FTA A   1       9.707  19.173  22.302  1.00  0.00    -0.197 NA
ENDROOT
BRANCH   2   5
ATOM      5  C13 FTA A   1       8.800  18.000  18.967  1.00  0.00     0.197 A 
ATOM      6  N15 FTA A   1       8.276  17.066  18.077  1.00  0.00    -0.093 NA
ATOM      7  N19 FTA A   1       9.120  17.018  16.976  1.00  0.00    -0.231 N 
ATOM      8  N20 FTA A   1      10.168  17.907  17.166  1.00  0.00    -0.017 NA
ATOM      9  H15 FTA A   1       8.990  16.417  16.149  1.00  0.00     0.200 HD
ATOM     10  N16 FTA A   1       9.965  18.525  18.396  1.00  0.00    -0.090 NA
ENDBRANCH   2   5
BRANCH   1  11
ATOM     11  N1  FTA A   1       6.082  18.893  19.671  1.00  0.00    -0.389 N 
ATOM     12  H11 FTA A   1       6.359  19.830  19.344  1.00  0.00     0.159 HD
BRANCH  11  13
ATOM     13  C2  FTA A   1       4.843  18.374  19.204  1.00  0.00     0.028 A 
ATOM     14  C4  FTA A   1       4.708  17.059  18.768  1.00  0.00     0.031 A 
ATOM     15  C6  FTA A   1       3.531  16.678  18.109  1.00  0.00     0.031 A 
ATOM     16  C7  FTA A   1       2.492  17.575  17.873  1.00  0.00     0.032 A 
ATOM     17  C5  FTA A   1       2.631  18.872  18.335  1.00  0.00     0.031 A 
ATOM     18  C3  FTA A   1       3.796  19.272  18.979  1.00  0.00     0.031 A 
BRANCH  16  19
ATOM     19  N8  FTA A   1       1.391  17.273  17.032  1.00  0.00    -0.356 N 
ATOM     20  H1  FTA A   1       0.468  17.632  17.314  1.00  0.00     0.166 HD
BRANCH  19  21
ATOM     21  C24 FTA A   1       1.457  16.512  15.825  1.00  0.00     0.032 A 
ATOM     22  C26 FTA A   1       2.216  16.923  14.755  1.00  0.00     0.029 A 
ATOM     23  C28 FTA A   1       2.102  16.238  13.560  1.00  0.00     0.002 A 
ATOM     24  C30 FTA A   1       1.277  15.136  13.412  1.00  0.00     0.000 A 
ATOM     25  C29 FTA A   1       0.545  14.693  14.481  1.00  0.00     0.002 A 
ATOM     26  C27 FTA A   1       0.655  15.388  15.691  1.00  0.00     0.029 A 
ENDBRANCH  19  21
ENDBRANCH  16  19
ENDBRANCH  11  13
ENDBRANCH   1  11
TORSDOF 5
ENDMDL
MODEL 7
REMARK VINA RESULT:    -5.459      1.723      3.059
REMARK INTER + INTRA:          -8.071
REMARK INTER:                  -7.074
REMARK INTRA:                  -0.997
REMARK UNBOUND:                -1.017
REMARK  5 active torsions:
REMARK  status: ('A' for Active; 'I' for Inactive)
REMARK    1  A    between atoms: N8_1  and  C24_2 
REMARK    2  A    between atoms: N8_1  and  C7_8 
REMARK    3  A    between atoms: C2_13  and  N1_14 
REMARK    4  A    between atoms: N1_14  and  C17_15 
REMARK    5  A    between atoms: C14_16  and  C13_19 
ROOT
ATOM      1  C17 FTA A   1       8.308  17.544  18.450  1.00  0.00     0.142 C 
ATOM      2  C14 FTA A   1       7.274  17.255  17.634  1.00  0.00     0.158 C 
ATOM      3  C18 FTA A   1       7.509  16.976  16.234  1.00  0.00     0.069 C 
ATOM      4  N21 FTA A   1       7.840  16.829  15.119  1.00  0.00    -0.197 NA
ENDROOT
BRANCH   2   5
ATOM      5  C13 FTA A   1       5.901  17.210  18.186  1.00  0.00     0.197 A 
ATOM      6  N15 FTA A   1       5.249  18.245  18.854  1.00  0.00    -0.093 NA
ATOM      7  N19 FTA A   1       4.003  17.771  19.243  1.00  0.00    -0.231 N 
ATOM      8  N20 FTA A   1       3.868  16.453  18.831  1.00  0.00    -0.017 NA
ATOM      9  H15 FTA A   1       3.292  18.311  19.757  1.00  0.00     0.200 HD
ATOM     10  N16 FTA A   1       5.039  16.107  18.165  1.00  0.00    -0.090 NA
ENDBRANCH   2   5
BRANCH   1  11
ATOM     11  N1  FTA A   1       8.258  18.667  19.191  1.00  0.00    -0.389 N 
ATOM     12  H11 FTA A   1       7.692  19.450  18.832  1.00  0.00     0.159 HD
BRANCH  11  13
ATOM     13  C2  FTA A   1       8.925  18.855  20.432  1.00  0.00     0.028 A 
ATOM     14  C4  FTA A   1       8.861  17.916  21.458  1.00  0.00     0.031 A 
ATOM     15  C6  FTA A   1       9.343  18.262  22.728  1.00  0.00     0.031 A 
ATOM     16  C7  FTA A   1       9.884  19.516  22.998  1.00  0.00     0.032 A 
ATOM     17  C5  FTA A   1       9.964  20.429  21.962  1.00  0.00     0.031 A 
ATOM     18  C3  FTA A   1       9.479  20.111  20.699  1.00  0.00     0.031 A 
BRANCH  16  19
ATOM     19  N8  FTA A   1      10.183  19.959  24.312  1.00  0.00    -0.356 N 
ATOM     20  H1  FTA A   1      11.166  20.185  24.522  1.00  0.00     0.166 HD
BRANCH  19  21
ATOM     21  C24 FTA A   1       9.234  20.116  25.367  1.00  0.00     0.032 A 
ATOM     22  C26 FTA A   1       9.537  19.778  26.665  1.00  0.00     0.029 A 
ATOM     23  C28 FTA A   1       8.525  19.791  27.606  1.00  0.00     0.002 A 
ATOM     24  C30 FTA A   1       7.227  20.162  27.296  1.00  0.00     0.000 A 
ATOM     25  C29 FTA A   1       6.921  20.537  26.015  1.00  0.00     0.002 A 
ATOM     26  C27 FTA A   1       7.943  20.522  25.059  1.00  0.00     0.029 A 
ENDBRANCH  19  21
ENDBRANCH  16  19
ENDBRANCH  11  13
ENDBRANCH   1  11
TORSDOF 5
ENDMDL
MODEL 8
REMARK VINA RESULT:    -5.420      5.617      8.130
REMARK INTER + INTRA:          -8.021
REMARK INTER:                  -7.004
REMARK INTRA:                  -1.017
REMARK UNBOUND:                -1.017
REMARK  5 active torsions:
REMARK  status: ('A' for Active; 'I' for Inactive)
REMARK    1  A    between atoms: N8_1  and  C24_2 
REMARK    2  A    between atoms: N8_1  and  C7_8 
REMARK    3  A    between atoms: C2_13  and  N1_14 
REMARK    4  A    between atoms: N1_14  and  C17_15 
REMARK    5  A    between atoms: C14_16  and  C13_19 
ROOT
ATOM      1  C17 FTA A   1       0.753  18.319  16.887  1.00  0.00     0.142 C 
ATOM      2  C14 FTA A   1      -0.189  17.605  16.239  1.00  0.00     0.158 C 
ATOM      3  C18 FTA A   1      -1.569  18.039  16.255  1.00  0.00     0.069 C 
ATOM      4  N21 FTA A   1      -2.648  18.475  16.401  1.00  0.00    -0.197 NA
ENDROOT
BRANCH   2   5
ATOM      5  C13 FTA A   1       0.204  16.384  15.499  1.00  0.00     0.197 A 
ATOM      6  N15 FTA A   1       1.313  16.248  14.666  1.00  0.00    -0.093 NA
ATOM      7  N19 FTA A   1       1.284  14.964  14.138  1.00  0.00    -0.231 N 
ATOM      8  N20 FTA A   1       0.171  14.296  14.627  1.00  0.00    -0.017 NA
ATOM      9  H15 FTA A   1       1.978  14.570  13.487  1.00  0.00     0.200 HD
ATOM     10  N16 FTA A   1      -0.495  15.171  15.480  1.00  0.00    -0.090 NA
ENDBRANCH   2   5
BRANCH   1  11
ATOM     11  N1  FTA A   1       1.554  17.691  17.769  1.00  0.00    -0.389 N 
ATOM     12  H11 FTA A   1       1.111  17.274  18.601  1.00  0.00     0.159 HD
BRANCH  11  13
ATOM     13  C2  FTA A   1       2.964  17.559  17.640  1.00  0.00     0.028 A 
ATOM     14  C4  FTA A   1       3.665  18.114  16.573  1.00  0.00     0.031 A 
ATOM     15  C6  FTA A   1       5.006  17.756  16.381  1.00  0.00     0.031 A 
ATOM     16  C7  FTA A   1       5.661  16.860  17.223  1.00  0.00     0.032 A 
ATOM     17  C5  FTA A   1       4.957  16.337  18.293  1.00  0.00     0.031 A 
ATOM     18  C3  FTA A   1       3.623  16.669  18.493  1.00  0.00     0.031 A 
BRANCH  16  19
ATOM     19  N8  FTA A   1       6.941  16.325  16.931  1.00  0.00    -0.356 N 
ATOM     20  H1  FTA A   1       6.975  15.400  16.477  1.00  0.00     0.166 HD
BRANCH  19  21
ATOM     21  C24 FTA A   1       8.188  16.962  17.213  1.00  0.00     0.032 A 
ATOM     22  C26 FTA A   1       8.415  17.601  18.409  1.00  0.00     0.029 A 
ATOM     23  C28 FTA A   1       9.572  18.343  18.553  1.00  0.00     0.002 A 
ATOM     24  C30 FTA A   1      10.523  18.440  17.551  1.00  0.00     0.000 A 
ATOM     25  C29 FTA A   1      10.326  17.776  16.369  1.00  0.00     0.002 A 
ATOM     26  C27 FTA A   1       9.153  17.027  16.219  1.00  0.00     0.029 A 
ENDBRANCH  19  21
ENDBRANCH  16  19
ENDBRANCH  11  13
ENDBRANCH   1  11
TORSDOF 5
ENDMDL
MODEL 9
REMARK VINA RESULT:    -5.399      1.793      2.816
REMARK INTER + INTRA:          -7.993
REMARK INTER:                  -6.816
REMARK INTRA:                  -1.177
REMARK UNBOUND:                -1.017
REMARK  5 active torsions:
REMARK  status: ('A' for Active; 'I' for Inactive)
REMARK    1  A    between atoms: N8_1  and  C24_2 
REMARK    2  A    between atoms: N8_1  and  C7_8 
REMARK    3  A    between atoms: C2_13  and  N1_14 
REMARK    4  A    between atoms: N1_14  and  C17_15 
REMARK    5  A    between atoms: C14_16  and  C13_19 
ROOT
ATOM      1  C17 FTA A   1       7.646  19.379  18.793  1.00  0.00     0.142 C 
ATOM      2  C14 FTA A   1       6.320  19.309  19.024  1.00  0.00     0.158 C 
ATOM      3  C18 FTA A   1       5.587  20.493  19.418  1.00  0.00     0.069 C 
ATOM      4  N21 FTA A   1       5.137  21.512  19.783  1.00  0.00    -0.197 NA
ENDROOT
BRANCH   2   5
ATOM      5  C13 FTA A   1       5.619  18.015  18.856  1.00  0.00     0.197 A 
ATOM      6  N15 FTA A   1       6.075  16.923  18.121  1.00  0.00    -0.093 NA
ATOM      7  N19 FTA A   1       5.097  15.939  18.186  1.00  0.00    -0.231 N 
ATOM      8  N20 FTA A   1       4.036  16.401  18.951  1.00  0.00    -0.017 NA
ATOM      9  H15 FTA A   1       5.151  15.012  17.739  1.00  0.00     0.200 HD
ATOM     10  N16 FTA A   1       4.363  17.685  19.376  1.00  0.00    -0.090 NA
ENDBRANCH   2   5
BRANCH   1  11
ATOM     11  N1  FTA A   1       8.465  18.522  19.432  1.00  0.00    -0.389 N 
ATOM     12  H11 FTA A   1       8.653  17.616  18.979  1.00  0.00     0.159 HD
BRANCH  11  13
ATOM     13  C2  FTA A   1       9.090  18.771  20.684  1.00  0.00     0.028 A 
ATOM     14  C4  FTA A   1       9.055  17.849  21.727  1.00  0.00     0.031 A 
ATOM     15  C6  FTA A   1       9.485  18.245  23.001  1.00  0.00     0.031 A 
ATOM     16  C7  FTA A   1       9.945  19.534  23.258  1.00  0.00     0.032 A 
ATOM     17  C5  FTA A   1       9.997  20.431  22.206  1.00  0.00     0.031 A 
ATOM     18  C3  FTA A   1       9.563  20.062  20.940  1.00  0.00     0.031 A 
BRANCH  16  19
ATOM     19  N8  FTA A   1      10.185  20.018  24.570  1.00  0.00    -0.356 N 
ATOM     20  H1  FTA A   1      11.151  20.289  24.804  1.00  0.00     0.166 HD
BRANCH  19  21
ATOM     21  C24 FTA A   1       9.199  20.159  25.592  1.00  0.00     0.032 A 
ATOM     22  C26 FTA A   1       9.470  19.844  26.903  1.00  0.00     0.029 A 
ATOM     23  C28 FTA A   1       8.428  19.837  27.811  1.00  0.00     0.002 A 
ATOM     24  C30 FTA A   1       7.131  20.167  27.456  1.00  0.00     0.000 A 
ATOM     25  C29 FTA A   1       6.856  20.519  26.162  1.00  0.00     0.002 A 
ATOM     26  C27 FTA A   1       7.908  20.523  25.239  1.00  0.00     0.029 A 
ENDBRANCH  19  21
ENDBRANCH  16  19
ENDBRANCH  11  13
ENDBRANCH   1  11
TORSDOF 5
ENDMDL
