MODEL 1
REMARK VINA RESULT:    -7.651      0.000      0.000
REMARK INTER + INTRA:         -11.149
REMARK INTER:                 -10.650
REMARK INTRA:                  -0.498
REMARK UNBOUND:                -1.037
REMARK  6 active torsions:
REMARK  status: ('A' for Active; 'I' for Inactive)
REMARK    1  A    between atoms: C_2  and  C_3 
REMARK    2  A    between atoms: C_3  and  C_5 
REMARK    3  A    between atoms: C_11  and  O_12 
REMARK    4  A    between atoms: C_13  and  C_14 
REMARK       I    between atoms: C_14  and  N_16 
REMARK    5  A    between atoms: N_16  and  C_18 
REMARK    6  A    between atoms: C_21  and  N_22 
ROOT
HETATM    1  C   UNL     1       5.980  14.980  23.266  0.00  0.00     0.071 A 
HETATM    2  N   UNL     1       6.853  15.620  24.060  0.00  0.00    -0.178 NA
HETATM    3  N   UNL     1       8.032  15.050  23.771  0.00  0.00    -0.277 N 
HETATM    4  H   UNL     1       8.854  15.377  24.270  0.00  0.00     0.189 HD
HETATM    5  C   UNL     1       7.963  14.063  22.828  0.00  0.00     0.065 A 
HETATM    6  C   UNL     1       8.937  13.210  22.304  0.00  0.00     0.069 A 
HETATM    7  C   UNL     1       8.522  12.243  21.366  0.00  0.00     0.083 A 
HETATM    8  C   UNL     1       7.203  12.183  20.898  0.00  0.00     0.066 A 
HETATM    9  C   UNL     1       6.252  13.071  21.467  0.00  0.00     0.035 A 
HETATM   10  C   UNL     1       6.627  14.006  22.452  0.00  0.00     0.020 A 
ENDROOT
BRANCH   8  11
HETATM   11  C   UNL     1       6.618  11.171  19.954  0.00  0.00     0.260 C 
HETATM   12  O   UNL     1       7.050  11.275  18.798  0.00  0.00    -0.267 OA
HETATM   13  N   UNL     1       5.695  10.165  20.336  0.00  0.00    -0.318 N 
HETATM   14  C   UNL     1       5.034  10.113  21.635  0.00  0.00     0.159 C 
BRANCH  13  15
HETATM   15  C   UNL     1       5.285   9.160  19.378  0.00  0.00     0.037 A 
HETATM   16  C   UNL     1       4.418   9.467  18.328  0.00  0.00     0.032 A 
HETATM   17  C   UNL     1       3.985   8.484  17.425  0.00  0.00     0.031 A 
HETATM   18  C   UNL     1       4.389   7.148  17.523  0.00  0.00     0.030 A 
HETATM   19  C   UNL     1       5.315   6.862  18.534  0.00  0.00     0.031 A 
HETATM   20  C   UNL     1       5.760   7.844  19.441  0.00  0.00     0.032 A 
BRANCH  18  21
HETATM   21  N   UNL     1       3.866   6.170  16.707  0.00  0.00    -0.377 N 
HETATM   22  C   UNL     1       3.636   4.781  17.128  0.00  0.00     0.149 C 
HETATM   23  C   UNL     1       2.227   4.335  16.702  0.00  0.00     0.187 C 
HETATM   24  O   UNL     1       2.015   4.517  15.291  0.00  0.00    -0.388 OA
HETATM   25  C   UNL     1       2.180   5.901  14.940  0.00  0.00     0.187 C 
HETATM   26  C   UNL     1       3.593   6.410  15.279  0.00  0.00     0.149 C 
ENDBRANCH  18  21
ENDBRANCH  13  15
ENDBRANCH   8  11
BRANCH   7  27
HETATM   27  O   UNL     1       9.458  11.322  20.980  0.00  0.00    -0.360 OA
HETATM   28  H   UNL     1       9.145  10.851  20.189  0.00  0.00     0.217 HD
ENDBRANCH   7  27
BRANCH   1  29
HETATM   29  C   UNL     1       4.519  15.354  23.351  0.00  0.00     0.036 C 
HETATM   30  C   UNL     1       4.206  16.091  24.658  0.00  0.00     0.016 C 
BRANCH  29  31
HETATM   31  C   UNL     1       3.576  14.150  23.171  0.00  0.00     0.006 C 
HETATM   32  C   UNL     1       2.104  14.512  23.324  0.00  0.00     0.006 C 
ENDBRANCH  29  31
ENDBRANCH   1  29
TORSDOF 6
ENDMDL
MODEL 2
REMARK VINA RESULT:    -7.512      1.750      2.632
REMARK INTER + INTRA:         -10.965
REMARK INTER:                  -9.980
REMARK INTRA:                  -0.985
REMARK UNBOUND:                -1.037
REMARK  6 active torsions:
REMARK  status: ('A' for Active; 'I' for Inactive)
REMARK    1  A    between atoms: C_2  and  C_3 
REMARK    2  A    between atoms: C_3  and  C_5 
REMARK    3  A    between atoms: C_11  and  O_12 
REMARK    4  A    between atoms: C_13  and  C_14 
REMARK       I    between atoms: C_14  and  N_16 
REMARK    5  A    between atoms: N_16  and  C_18 
REMARK    6  A    between atoms: C_21  and  N_22 
ROOT
HETATM    1  C   UNL     1       3.797  13.685  22.950  0.00  0.00     0.071 A 
HETATM    2  N   UNL     1       4.504  14.607  23.622  0.00  0.00    -0.178 NA
HETATM    3  N   UNL     1       5.745  14.487  23.129  0.00  0.00    -0.277 N 
HETATM    4  H   UNL     1       6.469  15.093  23.506  0.00  0.00     0.189 HD
HETATM    5  C   UNL     1       5.877  13.523  22.169  0.00  0.00     0.065 A 
HETATM    6  C   UNL     1       6.992  13.062  21.463  0.00  0.00     0.069 A 
HETATM    7  C   UNL     1       6.798  11.994  20.563  0.00  0.00     0.083 A 
HETATM    8  C   UNL     1       5.528  11.463  20.306  0.00  0.00     0.066 A 
HETATM    9  C   UNL     1       4.430  11.966  21.053  0.00  0.00     0.035 A 
HETATM   10  C   UNL     1       4.605  12.990  22.005  0.00  0.00     0.020 A 
ENDROOT
BRANCH   8  11
HETATM   11  C   UNL     1       5.193  10.292  19.425  0.00  0.00     0.260 C 
HETATM   12  O   UNL     1       5.680   9.226  19.825  0.00  0.00    -0.267 OA
HETATM   13  N   UNL     1       4.373  10.371  18.271  0.00  0.00    -0.318 N 
HETATM   14  C   UNL     1       3.925  11.623  17.672  0.00  0.00     0.159 C 
BRANCH  13  15
HETATM   15  C   UNL     1       4.009   9.165  17.560  0.00  0.00     0.037 A 
HETATM   16  C   UNL     1       4.813   8.652  16.540  0.00  0.00     0.032 A 
HETATM   17  C   UNL     1       4.439   7.506  15.821  0.00  0.00     0.031 A 
HETATM   18  C   UNL     1       3.247   6.818  16.075  0.00  0.00     0.030 A 
HETATM   19  C   UNL     1       2.483   7.295  17.147  0.00  0.00     0.031 A 
HETATM   20  C   UNL     1       2.854   8.440  17.879  0.00  0.00     0.032 A 
BRANCH  18  21
HETATM   21  N   UNL     1       2.833   5.768  15.286  0.00  0.00    -0.377 N 
HETATM   22  C   UNL     1       3.326   5.516  13.925  0.00  0.00     0.149 C 
HETATM   23  C   UNL     1       3.701   4.032  13.775  0.00  0.00     0.187 C 
HETATM   24  O   UNL     1       2.606   3.168  14.125  0.00  0.00    -0.388 OA
HETATM   25  C   UNL     1       2.207   3.401  15.486  0.00  0.00     0.187 C 
HETATM   26  C   UNL     1       1.755   4.855  15.706  0.00  0.00     0.149 C 
ENDBRANCH  18  21
ENDBRANCH  13  15
ENDBRANCH   8  11
BRANCH   7  27
HETATM   27  O   UNL     1       7.923  11.458  19.998  0.00  0.00    -0.360 OA
HETATM   28  H   UNL     1       7.707  11.098  19.121  0.00  0.00     0.217 HD
ENDBRANCH   7  27
BRANCH   1  29
HETATM   29  C   UNL     1       2.332  13.519  23.278  0.00  0.00     0.036 C 
HETATM   30  C   UNL     1       1.936  12.039  23.328  0.00  0.00     0.016 C 
BRANCH  29  31
HETATM   31  C   UNL     1       1.407  14.292  22.321  0.00  0.00     0.006 C 
HETATM   32  C   UNL     1       0.659  13.391  21.347  0.00  0.00     0.006 C 
ENDBRANCH  29  31
ENDBRANCH   1  29
TORSDOF 6
ENDMDL
MODEL 3
REMARK VINA RESULT:    -7.400      3.076      4.934
REMARK INTER + INTRA:         -10.817
REMARK INTER:                 -10.008
REMARK INTRA:                  -0.809
REMARK UNBOUND:                -1.037
REMARK  6 active torsions:
REMARK  status: ('A' for Active; 'I' for Inactive)
REMARK    1  A    between atoms: C_2  and  C_3 
REMARK    2  A    between atoms: C_3  and  C_5 
REMARK    3  A    between atoms: C_11  and  O_12 
REMARK    4  A    between atoms: C_13  and  C_14 
REMARK       I    between atoms: C_14  and  N_16 
REMARK    5  A    between atoms: N_16  and  C_18 
REMARK    6  A    between atoms: C_21  and  N_22 
ROOT
HETATM    1  C   UNL     1      11.025  14.249  25.722  0.00  0.00     0.071 A 
HETATM    2  N   UNL     1      11.041  15.016  26.824  0.00  0.00    -0.178 NA
HETATM    3  N   UNL     1       9.759  15.372  26.990  0.00  0.00    -0.277 N 
HETATM    4  H   UNL     1       9.530  15.976  27.775  0.00  0.00     0.189 HD
HETATM    5  C   UNL     1       8.910  14.875  26.041  0.00  0.00     0.065 A 
HETATM    6  C   UNL     1       7.540  15.055  25.836  0.00  0.00     0.069 A 
HETATM    7  C   UNL     1       6.962  14.435  24.709  0.00  0.00     0.083 A 
HETATM    8  C   UNL     1       7.700  13.594  23.867  0.00  0.00     0.066 A 
HETATM    9  C   UNL     1       9.090  13.448  24.119  0.00  0.00     0.035 A 
HETATM   10  C   UNL     1       9.706  14.106  25.201  0.00  0.00     0.020 A 
ENDROOT
BRANCH   8  11
HETATM   11  C   UNL     1       7.226  12.926  22.606  0.00  0.00     0.260 C 
HETATM   12  O   UNL     1       7.720  13.414  21.580  0.00  0.00    -0.267 OA
HETATM   13  N   UNL     1       6.335  11.824  22.574  0.00  0.00    -0.318 N 
HETATM   14  C   UNL     1       5.602  11.332  23.734  0.00  0.00     0.159 C 
BRANCH  13  15
HETATM   15  C   UNL     1       6.037  11.173  21.316  0.00  0.00     0.037 A 
HETATM   16  C   UNL     1       5.330  11.831  20.307  0.00  0.00     0.032 A 
HETATM   17  C   UNL     1       5.002  11.186  19.105  0.00  0.00     0.031 A 
HETATM   18  C   UNL     1       5.356   9.857  18.847  0.00  0.00     0.030 A 
HETATM   19  C   UNL     1       6.127   9.228  19.832  0.00  0.00     0.031 A 
HETATM   20  C   UNL     1       6.466   9.869  21.040  0.00  0.00     0.032 A 
BRANCH  18  21
HETATM   21  N   UNL     1       4.927   9.198  17.716  0.00  0.00    -0.377 N 
HETATM   22  C   UNL     1       5.706   8.165  17.019  0.00  0.00     0.149 C 
HETATM   23  C   UNL     1       4.810   6.950  16.722  0.00  0.00     0.187 C 
HETATM   24  O   UNL     1       3.629   7.326  15.993  0.00  0.00    -0.388 OA
HETATM   25  C   UNL     1       2.864   8.282  16.746  0.00  0.00     0.187 C 
HETATM   26  C   UNL     1       3.673   9.559  17.032  0.00  0.00     0.149 C 
ENDBRANCH  18  21
ENDBRANCH  13  15
ENDBRANCH   8  11
BRANCH   7  27
HETATM   27  O   UNL     1       5.657  14.746  24.441  0.00  0.00    -0.360 OA
HETATM   28  H   UNL     1       5.214  15.028  25.259  0.00  0.00     0.217 HD
ENDBRANCH   7  27
BRANCH   1  29
HETATM   29  C   UNL     1      12.331  13.687  25.214  0.00  0.00     0.036 C 
HETATM   30  C   UNL     1      13.137  13.039  26.346  0.00  0.00     0.016 C 
BRANCH  29  31
HETATM   31  C   UNL     1      13.187  14.726  24.469  0.00  0.00     0.006 C 
HETATM   32  C   UNL     1      12.552  15.211  23.173  0.00  0.00     0.006 C 
ENDBRANCH  29  31
ENDBRANCH   1  29
TORSDOF 6
ENDMDL
MODEL 4
REMARK VINA RESULT:    -7.297      2.422      4.112
REMARK INTER + INTRA:         -10.681
REMARK INTER:                  -9.801
REMARK INTRA:                  -0.880
REMARK UNBOUND:                -1.037
REMARK  6 active torsions:
REMARK  status: ('A' for Active; 'I' for Inactive)
REMARK    1  A    between atoms: C_2  and  C_3 
REMARK    2  A    between atoms: C_3  and  C_5 
REMARK    3  A    between atoms: C_11  and  O_12 
REMARK    4  A    between atoms: C_13  and  C_14 
REMARK       I    between atoms: C_14  and  N_16 
REMARK    5  A    between atoms: N_16  and  C_18 
REMARK    6  A    between atoms: C_21  and  N_22 
ROOT
HETATM    1  C   UNL     1       9.935  15.164  24.401  0.00  0.00     0.071 A 
HETATM    2  N   UNL     1       9.954  15.712  25.626  0.00  0.00    -0.178 NA
HETATM    3  N   UNL     1       8.993  15.054  26.291  0.00  0.00    -0.277 N 
HETATM    4  H   UNL     1       8.818  15.314  27.257  0.00  0.00     0.189 HD
HETATM    5  C   UNL     1       8.346  14.106  25.549  0.00  0.00     0.065 A 
HETATM    6  C   UNL     1       7.274  13.262  25.852  0.00  0.00     0.069 A 
HETATM    7  C   UNL     1       6.796  12.421  24.827  0.00  0.00     0.083 A 
HETATM    8  C   UNL     1       7.417  12.354  23.574  0.00  0.00     0.066 A 
HETATM    9  C   UNL     1       8.500  13.235  23.318  0.00  0.00     0.035 A 
HETATM   10  C   UNL     1       8.959  14.131  24.303  0.00  0.00     0.020 A 
ENDROOT
BRANCH   8  11
HETATM   11  C   UNL     1       6.975  11.552  22.382  0.00  0.00     0.260 C 
HETATM   12  O   UNL     1       7.773  10.658  22.072  0.00  0.00    -0.267 OA
HETATM   13  N   UNL     1       5.753  11.757  21.692  0.00  0.00    -0.318 N 
HETATM   14  C   UNL     1       4.872  12.898  21.911  0.00  0.00     0.159 C 
BRANCH  13  15
HETATM   15  C   UNL     1       5.362  10.852  20.632  0.00  0.00     0.037 A 
HETATM   16  C   UNL     1       5.025   9.524  20.898  0.00  0.00     0.032 A 
HETATM   17  C   UNL     1       4.687   8.634  19.866  0.00  0.00     0.031 A 
HETATM   18  C   UNL     1       4.674   9.019  18.520  0.00  0.00     0.030 A 
HETATM   19  C   UNL     1       4.942  10.370  18.269  0.00  0.00     0.031 A 
HETATM   20  C   UNL     1       5.275  11.272  19.299  0.00  0.00     0.032 A 
BRANCH  18  21
HETATM   21  N   UNL     1       4.459   8.111  17.508  0.00  0.00    -0.377 N 
HETATM   22  C   UNL     1       5.031   6.757  17.480  0.00  0.00     0.149 C 
HETATM   23  C   UNL     1       3.936   5.737  17.126  0.00  0.00     0.187 C 
HETATM   24  O   UNL     1       3.274   6.073  15.894  0.00  0.00    -0.388 OA
HETATM   25  C   UNL     1       2.670   7.373  15.995  0.00  0.00     0.187 C 
HETATM   26  C   UNL     1       3.713   8.465  16.287  0.00  0.00     0.149 C 
ENDBRANCH  18  21
ENDBRANCH  13  15
ENDBRANCH   8  11
BRANCH   7  27
HETATM   27  O   UNL     1       5.654  11.716  25.096  0.00  0.00    -0.360 OA
HETATM   28  H   UNL     1       5.442  11.140  24.342  0.00  0.00     0.217 HD
ENDBRANCH   7  27
BRANCH   1  29
HETATM   29  C   UNL     1      10.889  15.695  23.358  0.00  0.00     0.036 C 
HETATM   30  C   UNL     1      10.137  16.213  22.126  0.00  0.00     0.016 C 
BRANCH  29  31
HETATM   31  C   UNL     1      11.962  14.673  22.944  0.00  0.00     0.006 C 
HETATM   32  C   UNL     1      12.932  14.331  24.068  0.00  0.00     0.006 C 
ENDBRANCH  29  31
ENDBRANCH   1  29
TORSDOF 6
ENDMDL
MODEL 5
REMARK VINA RESULT:    -7.251      2.509      9.853
REMARK INTER + INTRA:         -10.620
REMARK INTER:                  -9.644
REMARK INTRA:                  -0.976
REMARK UNBOUND:                -1.037
REMARK  6 active torsions:
REMARK  status: ('A' for Active; 'I' for Inactive)
REMARK    1  A    between atoms: C_2  and  C_3 
REMARK    2  A    between atoms: C_3  and  C_5 
REMARK    3  A    between atoms: C_11  and  O_12 
REMARK    4  A    between atoms: C_13  and  C_14 
REMARK       I    between atoms: C_14  and  N_16 
REMARK    5  A    between atoms: N_16  and  C_18 
REMARK    6  A    between atoms: C_21  and  N_22 
ROOT
HETATM    1  C   UNL     1       4.501   6.442  17.653  0.00  0.00     0.071 A 
HETATM    2  N   UNL     1       3.524   6.139  16.784  0.00  0.00    -0.178 NA
HETATM    3  N   UNL     1       3.070   7.334  16.378  0.00  0.00    -0.277 N 
HETATM    4  H   UNL     1       2.305   7.351  15.709  0.00  0.00     0.189 HD
HETATM    5  C   UNL     1       3.706   8.400  16.948  0.00  0.00     0.065 A 
HETATM    6  C   UNL     1       3.497   9.777  16.832  0.00  0.00     0.069 A 
HETATM    7  C   UNL     1       4.305  10.628  17.614  0.00  0.00     0.083 A 
HETATM    8  C   UNL     1       5.342  10.135  18.414  0.00  0.00     0.066 A 
HETATM    9  C   UNL     1       5.509   8.727  18.499  0.00  0.00     0.035 A 
HETATM   10  C   UNL     1       4.676   7.850  17.778  0.00  0.00     0.020 A 
ENDROOT
BRANCH   8  11
HETATM   11  C   UNL     1       6.230  10.921  19.338  0.00  0.00     0.260 C 
HETATM   12  O   UNL     1       7.269  11.320  18.795  0.00  0.00    -0.267 OA
HETATM   13  N   UNL     1       5.911  11.220  20.687  0.00  0.00    -0.318 N 
HETATM   14  C   UNL     1       4.792  10.631  21.412  0.00  0.00     0.159 C 
BRANCH  13  15
HETATM   15  C   UNL     1       6.776  12.089  21.457  0.00  0.00     0.037 A 
HETATM   16  C   UNL     1       6.421  13.410  21.732  0.00  0.00     0.032 A 
HETATM   17  C   UNL     1       7.278  14.266  22.441  0.00  0.00     0.031 A 
HETATM   18  C   UNL     1       8.531  13.852  22.909  0.00  0.00     0.030 A 
HETATM   19  C   UNL     1       8.848  12.505  22.693  0.00  0.00     0.031 A 
HETATM   20  C   UNL     1       7.991  11.637  21.988  0.00  0.00     0.032 A 
BRANCH  18  21
HETATM   21  N   UNL     1       9.413  14.730  23.497  0.00  0.00    -0.377 N 
HETATM   22  C   UNL     1       9.404  15.073  24.927  0.00  0.00     0.149 C 
HETATM   23  C   UNL     1      10.833  14.991  25.489  0.00  0.00     0.187 C 
HETATM   24  O   UNL     1      11.748  15.810  24.740  0.00  0.00    -0.388 OA
HETATM   25  C   UNL     1      11.775  15.390  23.366  0.00  0.00     0.187 C 
HETATM   26  C   UNL     1      10.389  15.502  22.708  0.00  0.00     0.149 C 
ENDBRANCH  18  21
ENDBRANCH  13  15
ENDBRANCH   8  11
BRANCH   7  27
HETATM   27  O   UNL     1       3.984  11.958  17.601  0.00  0.00    -0.360 OA
HETATM   28  H   UNL     1       4.770  12.481  17.368  0.00  0.00     0.217 HD
ENDBRANCH   7  27
BRANCH   1  29
HETATM   29  C   UNL     1       5.229   5.313  18.344  0.00  0.00     0.036 C 
HETATM   30  C   UNL     1       4.802   3.950  17.786  0.00  0.00     0.016 C 
BRANCH  29  31
HETATM   31  C   UNL     1       5.074   5.341  19.875  0.00  0.00     0.006 C 
HETATM   32  C   UNL     1       6.356   5.725  20.602  0.00  0.00     0.006 C 
ENDBRANCH  29  31
ENDBRANCH   1  29
TORSDOF 6
ENDMDL
MODEL 6
REMARK VINA RESULT:    -7.082      1.715      3.388
REMARK INTER + INTRA:         -10.396
REMARK INTER:                  -9.648
REMARK INTRA:                  -0.748
REMARK UNBOUND:                -1.037
REMARK  6 active torsions:
REMARK  status: ('A' for Active; 'I' for Inactive)
REMARK    1  A    between atoms: C_2  and  C_3 
REMARK    2  A    between atoms: C_3  and  C_5 
REMARK    3  A    between atoms: C_11  and  O_12 
REMARK    4  A    between atoms: C_13  and  C_14 
REMARK       I    between atoms: C_14  and  N_16 
REMARK    5  A    between atoms: N_16  and  C_18 
REMARK    6  A    between atoms: C_21  and  N_22 
ROOT
HETATM    1  C   UNL     1       7.861  14.853  22.267  0.00  0.00     0.071 A 
HETATM    2  N   UNL     1       7.683  15.867  23.128  0.00  0.00    -0.178 NA
HETATM    3  N   UNL     1       6.412  15.729  23.534  0.00  0.00    -0.277 N 
HETATM    4  H   UNL     1       6.047  16.408  24.196  0.00  0.00     0.189 HD
HETATM    5  C   UNL     1       5.754  14.672  22.971  0.00  0.00     0.065 A 
HETATM    6  C   UNL     1       4.434  14.231  23.089  0.00  0.00     0.069 A 
HETATM    7  C   UNL     1       4.046  13.118  22.315  0.00  0.00     0.083 A 
HETATM    8  C   UNL     1       4.959  12.413  21.521  0.00  0.00     0.066 A 
HETATM    9  C   UNL     1       6.288  12.906  21.434  0.00  0.00     0.035 A 
HETATM   10  C   UNL     1       6.687  14.054  22.148  0.00  0.00     0.020 A 
ENDROOT
BRANCH   8  11
HETATM   11  C   UNL     1       4.667  11.257  20.606  0.00  0.00     0.260 C 
HETATM   12  O   UNL     1       3.896  11.550  19.682  0.00  0.00    -0.267 OA
HETATM   13  N   UNL     1       5.235   9.966  20.745  0.00  0.00    -0.318 N 
HETATM   14  C   UNL     1       6.005   9.533  21.906  0.00  0.00     0.159 C 
BRANCH  13  15
HETATM   15  C   UNL     1       4.986   8.955  19.740  0.00  0.00     0.037 A 
HETATM   16  C   UNL     1       5.352   9.149  18.407  0.00  0.00     0.032 A 
HETATM   17  C   UNL     1       5.071   8.188  17.424  0.00  0.00     0.031 A 
HETATM   18  C   UNL     1       4.409   6.990  17.716  0.00  0.00     0.030 A 
HETATM   19  C   UNL     1       4.110   6.771  19.066  0.00  0.00     0.031 A 
HETATM   20  C   UNL     1       4.395   7.727  20.061  0.00  0.00     0.032 A 
BRANCH  18  21
HETATM   21  N   UNL     1       4.033   6.109  16.726  0.00  0.00    -0.377 N 
HETATM   22  C   UNL     1       3.987   4.650  16.896  0.00  0.00     0.149 C 
HETATM   23  C   UNL     1       2.656   4.105  16.351  0.00  0.00     0.187 C 
HETATM   24  O   UNL     1       2.438   4.501  14.985  0.00  0.00    -0.388 OA
HETATM   25  C   UNL     1       2.419   5.934  14.882  0.00  0.00     0.187 C 
HETATM   26  C   UNL     1       3.746   6.556  15.352  0.00  0.00     0.149 C 
ENDBRANCH  18  21
ENDBRANCH  13  15
ENDBRANCH   8  11
BRANCH   7  27
HETATM   27  O   UNL     1       2.716  12.796  22.329  0.00  0.00    -0.360 OA
HETATM   28  H   UNL     1       2.586  11.970  22.824  0.00  0.00     0.217 HD
ENDBRANCH   7  27
BRANCH   1  29
HETATM   29  C   UNL     1       9.198  14.715  21.580  0.00  0.00     0.036 C 
HETATM   30  C   UNL     1       9.888  13.399  21.958  0.00  0.00     0.016 C 
BRANCH  29  31
HETATM   31  C   UNL     1      10.136  15.909  21.837  0.00  0.00     0.006 C 
HETATM   32  C   UNL     1      11.327  15.558  22.719  0.00  0.00     0.006 C 
ENDBRANCH  29  31
ENDBRANCH   1  29
TORSDOF 6
ENDMDL
MODEL 7
REMARK VINA RESULT:    -7.030      3.109      4.977
REMARK INTER + INTRA:         -10.327
REMARK INTER:                  -9.377
REMARK INTRA:                  -0.950
REMARK UNBOUND:                -1.037
REMARK  6 active torsions:
REMARK  status: ('A' for Active; 'I' for Inactive)
REMARK    1  A    between atoms: C_2  and  C_3 
REMARK    2  A    between atoms: C_3  and  C_5 
REMARK    3  A    between atoms: C_11  and  O_12 
REMARK    4  A    between atoms: C_13  and  C_14 
REMARK       I    between atoms: C_14  and  N_16 
REMARK    5  A    between atoms: N_16  and  C_18 
REMARK    6  A    between atoms: C_21  and  N_22 
ROOT
HETATM    1  C   UNL     1      11.660  14.014  25.133  0.00  0.00     0.071 A 
HETATM    2  N   UNL     1      12.178  15.189  25.524  0.00  0.00    -0.178 NA
HETATM    3  N   UNL     1      11.644  16.077  24.672  0.00  0.00    -0.277 N 
HETATM    4  H   UNL     1      11.907  17.053  24.775  0.00  0.00     0.189 HD
HETATM    5  C   UNL     1      10.806  15.530  23.742  0.00  0.00     0.065 A 
HETATM    6  C   UNL     1      10.110  16.097  22.671  0.00  0.00     0.069 A 
HETATM    7  C   UNL     1       9.360  15.232  21.849  0.00  0.00     0.083 A 
HETATM    8  C   UNL     1       9.233  13.867  22.131  0.00  0.00     0.066 A 
HETATM    9  C   UNL     1       9.963  13.341  23.230  0.00  0.00     0.035 A 
HETATM   10  C   UNL     1      10.771  14.172  24.031  0.00  0.00     0.020 A 
ENDROOT
BRANCH   8  11
HETATM   11  C   UNL     1       8.521  12.830  21.308  0.00  0.00     0.260 C 
HETATM   12  O   UNL     1       9.253  12.285  20.471  0.00  0.00    -0.267 OA
HETATM   13  N   UNL     1       7.161  12.469  21.483  0.00  0.00    -0.318 N 
HETATM   14  C   UNL     1       6.224  13.197  22.331  0.00  0.00     0.159 C 
BRANCH  13  15
HETATM   15  C   UNL     1       6.602  11.371  20.722  0.00  0.00     0.037 A 
HETATM   16  C   UNL     1       6.601  10.068  21.221  0.00  0.00     0.032 A 
HETATM   17  C   UNL     1       6.098   8.996  20.466  0.00  0.00     0.031 A 
HETATM   18  C   UNL     1       5.578   9.167  19.178  0.00  0.00     0.030 A 
HETATM   19  C   UNL     1       5.516  10.487  18.715  0.00  0.00     0.031 A 
HETATM   20  C   UNL     1       6.011  11.569  19.468  0.00  0.00     0.032 A 
BRANCH  18  21
HETATM   21  N   UNL     1       5.199   8.095  18.400  0.00  0.00    -0.377 N 
HETATM   22  C   UNL     1       4.505   6.907  18.917  0.00  0.00     0.149 C 
HETATM   23  C   UNL     1       3.309   6.569  18.011  0.00  0.00     0.187 C 
HETATM   24  O   UNL     1       3.709   6.411  16.638  0.00  0.00    -0.388 OA
HETATM   25  C   UNL     1       4.316   7.622  16.157  0.00  0.00     0.187 C 
HETATM   26  C   UNL     1       5.563   7.998  16.976  0.00  0.00     0.149 C 
ENDBRANCH  18  21
ENDBRANCH  13  15
ENDBRANCH   8  11
BRANCH   7  27
HETATM   27  O   UNL     1       8.812  15.781  20.721  0.00  0.00    -0.360 OA
HETATM   28  H   UNL     1       8.481  16.673  20.921  0.00  0.00     0.217 HD
ENDBRANCH   7  27
BRANCH   1  29
HETATM   29  C   UNL     1      12.077  12.762  25.868  0.00  0.00     0.036 C 
HETATM   30  C   UNL     1      11.139  12.468  27.044  0.00  0.00     0.016 C 
BRANCH  29  31
HETATM   31  C   UNL     1      13.541  12.798  26.341  0.00  0.00     0.006 C 
HETATM   32  C   UNL     1      13.683  13.002  27.844  0.00  0.00     0.006 C 
ENDBRANCH  29  31
ENDBRANCH   1  29
TORSDOF 6
ENDMDL
MODEL 8
REMARK VINA RESULT:    -6.861      4.577      6.115
REMARK INTER + INTRA:         -10.104
REMARK INTER:                  -9.067
REMARK INTRA:                  -1.037
REMARK UNBOUND:                -1.037
REMARK  6 active torsions:
REMARK  status: ('A' for Active; 'I' for Inactive)
REMARK    1  A    between atoms: C_2  and  C_3 
REMARK    2  A    between atoms: C_3  and  C_5 
REMARK    3  A    between atoms: C_11  and  O_12 
REMARK    4  A    between atoms: C_13  and  C_14 
REMARK       I    between atoms: C_14  and  N_16 
REMARK    5  A    between atoms: N_16  and  C_18 
REMARK    6  A    between atoms: C_21  and  N_22 
ROOT
HETATM    1  C   UNL     1       7.899  15.157  22.664  0.00  0.00     0.071 A 
HETATM    2  N   UNL     1       8.667  16.051  22.019  0.00  0.00    -0.178 NA
HETATM    3  N   UNL     1       9.610  15.301  21.429  0.00  0.00    -0.277 N 
HETATM    4  H   UNL     1      10.323  15.776  20.882  0.00  0.00     0.189 HD
HETATM    5  C   UNL     1       9.491  13.960  21.666  0.00  0.00     0.065 A 
HETATM    6  C   UNL     1      10.287  12.876  21.285  0.00  0.00     0.069 A 
HETATM    7  C   UNL     1       9.914  11.598  21.748  0.00  0.00     0.083 A 
HETATM    8  C   UNL     1       8.744  11.392  22.490  0.00  0.00     0.066 A 
HETATM    9  C   UNL     1       7.974  12.528  22.853  0.00  0.00     0.035 A 
HETATM   10  C   UNL     1       8.357  13.825  22.456  0.00  0.00     0.020 A 
ENDROOT
BRANCH   8  11
HETATM   11  C   UNL     1       8.266  10.101  23.094  0.00  0.00     0.260 C 
HETATM   12  O   UNL     1       8.920   9.757  24.088  0.00  0.00    -0.267 OA
HETATM   13  N   UNL     1       7.158   9.358  22.616  0.00  0.00    -0.318 N 
HETATM   14  C   UNL     1       6.472   9.632  21.358  0.00  0.00     0.159 C 
BRANCH  13  15
HETATM   15  C   UNL     1       6.702   8.193  23.343  0.00  0.00     0.037 A 
HETATM   16  C   UNL     1       5.615   8.259  24.215  0.00  0.00     0.032 A 
HETATM   17  C   UNL     1       5.199   7.140  24.953  0.00  0.00     0.031 A 
HETATM   18  C   UNL     1       5.846   5.902  24.864  0.00  0.00     0.030 A 
HETATM   19  C   UNL     1       6.889   5.824  23.933  0.00  0.00     0.031 A 
HETATM   20  C   UNL     1       7.308   6.940  23.183  0.00  0.00     0.032 A 
BRANCH  18  21
HETATM   21  N   UNL     1       5.507   4.845  25.679  0.00  0.00    -0.377 N 
HETATM   22  C   UNL     1       6.426   3.758  26.044  0.00  0.00     0.149 C 
HETATM   23  C   UNL     1       6.362   3.510  27.560  0.00  0.00     0.187 C 
HETATM   24  O   UNL     1       5.017   3.256  28.002  0.00  0.00    -0.388 OA
HETATM   25  C   UNL     1       4.173   4.376  27.688  0.00  0.00     0.187 C 
HETATM   26  C   UNL     1       4.133   4.653  26.175  0.00  0.00     0.149 C 
ENDBRANCH  18  21
ENDBRANCH  13  15
ENDBRANCH   8  11
BRANCH   7  27
HETATM   27  O   UNL     1      10.786  10.575  21.492  0.00  0.00    -0.360 OA
HETATM   28  H   UNL     1      11.237  10.319  22.314  0.00  0.00     0.217 HD
ENDBRANCH   7  27
BRANCH   1  29
HETATM   29  C   UNL     1       6.731  15.663  23.477  0.00  0.00     0.036 C 
HETATM   30  C   UNL     1       6.909  15.345  24.966  0.00  0.00     0.016 C 
BRANCH  29  31
HETATM   31  C   UNL     1       5.373  15.143  22.972  0.00  0.00     0.006 C 
HETATM   32  C   UNL     1       4.191  15.680  23.768  0.00  0.00     0.006 C 
ENDBRANCH  29  31
ENDBRANCH   1  29
TORSDOF 6
ENDMDL
MODEL 9
REMARK VINA RESULT:    -6.848      2.452      3.655
REMARK INTER + INTRA:         -10.087
REMARK INTER:                  -9.153
REMARK INTRA:                  -0.934
REMARK UNBOUND:                -1.037
REMARK  6 active torsions:
REMARK  status: ('A' for Active; 'I' for Inactive)
REMARK    1  A    between atoms: C_2  and  C_3 
REMARK    2  A    between atoms: C_3  and  C_5 
REMARK    3  A    between atoms: C_11  and  O_12 
REMARK    4  A    between atoms: C_13  and  C_14 
REMARK       I    between atoms: C_14  and  N_16 
REMARK    5  A    between atoms: N_16  and  C_18 
REMARK    6  A    between atoms: C_21  and  N_22 
ROOT
HETATM    1  C   UNL     1       9.358  14.504  23.775  0.00  0.00     0.071 A 
HETATM    2  N   UNL     1       9.620  15.116  24.942  0.00  0.00    -0.178 NA
HETATM    3  N   UNL     1       8.715  14.600  25.788  0.00  0.00    -0.277 N 
HETATM    4  H   UNL     1       8.719  14.931  26.748  0.00  0.00     0.189 HD
HETATM    5  C   UNL     1       7.874  13.684  25.221  0.00  0.00     0.065 A 
HETATM    6  C   UNL     1       6.788  12.975  25.741  0.00  0.00     0.069 A 
HETATM    7  C   UNL     1       6.079  12.131  24.862  0.00  0.00     0.083 A 
HETATM    8  C   UNL     1       6.487  11.929  23.538  0.00  0.00     0.066 A 
HETATM    9  C   UNL     1       7.596  12.677  23.060  0.00  0.00     0.035 A 
HETATM   10  C   UNL     1       8.285  13.575  23.899  0.00  0.00     0.020 A 
ENDROOT
BRANCH   8  11
HETATM   11  C   UNL     1       5.791  11.112  22.486  0.00  0.00     0.260 C 
HETATM   12  O   UNL     1       4.668  11.547  22.195  0.00  0.00    -0.267 OA
HETATM   13  N   UNL     1       6.359   9.980  21.850  0.00  0.00    -0.318 N 
HETATM   14  C   UNL     1       7.596   9.336  22.280  0.00  0.00     0.159 C 
BRANCH  13  15
HETATM   15  C   UNL     1       5.657   9.335  20.761  0.00  0.00     0.037 A 
HETATM   16  C   UNL     1       5.565   9.929  19.502  0.00  0.00     0.032 A 
HETATM   17  C   UNL     1       4.848   9.325  18.458  0.00  0.00     0.031 A 
HETATM   18  C   UNL     1       4.182   8.104  18.616  0.00  0.00     0.030 A 
HETATM   19  C   UNL     1       4.339   7.479  19.860  0.00  0.00     0.031 A 
HETATM   20  C   UNL     1       5.063   8.075  20.910  0.00  0.00     0.032 A 
BRANCH  18  21
HETATM   21  N   UNL     1       3.383   7.579  17.625  0.00  0.00    -0.377 N 
HETATM   22  C   UNL     1       3.631   7.756  16.187  0.00  0.00     0.149 C 
HETATM   23  C   UNL     1       3.509   6.402  15.468  0.00  0.00     0.187 C 
HETATM   24  O   UNL     1       2.241   5.773  15.728  0.00  0.00    -0.388 OA
HETATM   25  C   UNL     1       2.076   5.556  17.139  0.00  0.00     0.187 C 
HETATM   26  C   UNL     1       2.124   6.877  17.928  0.00  0.00     0.149 C 
ENDBRANCH  18  21
ENDBRANCH  13  15
ENDBRANCH   8  11
BRANCH   7  27
HETATM   27  O   UNL     1       4.931  11.566  25.348  0.00  0.00    -0.360 OA
HETATM   28  H   UNL     1       4.165  12.103  25.083  0.00  0.00     0.217 HD
ENDBRANCH   7  27
BRANCH   1  29
HETATM   29  C   UNL     1      10.183  14.873  22.566  0.00  0.00     0.036 C 
HETATM   30  C   UNL     1      11.395  15.727  22.957  0.00  0.00     0.016 C 
BRANCH  29  31
HETATM   31  C   UNL     1       9.364  15.570  21.465  0.00  0.00     0.006 C 
HETATM   32  C   UNL     1       9.541  17.083  21.451  0.00  0.00     0.006 C 
ENDBRANCH  29  31
ENDBRANCH   1  29
TORSDOF 6
ENDMDL
