REMARK  6 active torsions:
REMARK  status: ('A' for Active; 'I' for Inactive)
REMARK    1  A    between atoms: C_2  and  C_3 
REMARK    2  A    between atoms: C_3  and  C_5 
REMARK    3  A    between atoms: C_11  and  O_12 
REMARK    4  A    between atoms: C_13  and  C_14 
REMARK       I    between atoms: C_14  and  N_16 
REMARK    5  A    between atoms: N_16  and  C_18 
REMARK    6  A    between atoms: C_21  and  N_22 
ROOT
HETATM    1  C   UNL     1       4.757  -1.471  -0.485  0.00  0.00     0.071 A 
HETATM    2  N   UNL     1       5.393  -0.292  -0.396  0.00  0.00    -0.178 NA
HETATM    3  N   UNL     1       6.617  -0.617   0.046  0.00  0.00    -0.277 N 
HETATM    4  H   UNL     1       7.283   0.135   0.200  0.00  0.00     0.189 HD
HETATM    5  C   UNL     1       6.803  -1.955   0.253  0.00  0.00     0.065 A 
HETATM    6  C   UNL     1       7.893  -2.675   0.749  0.00  0.00     0.069 A 
HETATM    7  C   UNL     1       7.742  -4.069   0.895  0.00  0.00     0.083 A 
HETATM    8  C   UNL     1       6.583  -4.736   0.480  0.00  0.00     0.066 A 
HETATM    9  C   UNL     1       5.504  -3.956  -0.014  0.00  0.00     0.035 A 
HETATM   10  C   UNL     1       5.604  -2.554  -0.112  0.00  0.00     0.020 A 
ENDROOT
BRANCH   8  11
HETATM   11  C   UNL     1       6.270  -6.198   0.635  0.00  0.00     0.260 C 
HETATM   12  O   UNL     1       5.111  -6.411   1.016  0.00  0.00    -0.267 OA
HETATM   13  N   UNL     1       7.181  -7.244   0.342  0.00  0.00    -0.318 N 
HETATM   14  C   UNL     1       8.597  -7.039   0.059  0.00  0.00     0.159 C 
BRANCH  13  15
HETATM   15  C   UNL     1       6.743  -8.622   0.406  0.00  0.00     0.037 A 
HETATM   16  C   UNL     1       5.448  -8.991   0.039  0.00  0.00     0.032 A 
HETATM   17  C   UNL     1       5.009 -10.320   0.142  0.00  0.00     0.031 A 
HETATM   18  C   UNL     1       5.833 -11.346   0.619  0.00  0.00     0.030 A 
HETATM   19  C   UNL     1       7.152 -10.981   0.916  0.00  0.00     0.031 A 
HETATM   20  C   UNL     1       7.603  -9.651   0.809  0.00  0.00     0.032 A 
BRANCH  18  21
HETATM   21  N   UNL     1       5.357 -12.621   0.829  0.00  0.00    -0.377 N 
HETATM   22  C   UNL     1       6.167 -13.838   0.678  0.00  0.00     0.149 C 
HETATM   23  C   UNL     1       5.962 -14.753   1.897  0.00  0.00     0.187 C 
HETATM   24  O   UNL     1       4.571 -15.049   2.113  0.00  0.00    -0.388 OA
HETATM   25  C   UNL     1       3.834 -13.834   2.327  0.00  0.00     0.187 C 
HETATM   26  C   UNL     1       3.937 -12.885   1.120  0.00  0.00     0.149 C 
ENDBRANCH  18  21
ENDBRANCH  13  15
ENDBRANCH   8  11
BRANCH   7  27
HETATM   27  O   UNL     1       8.761  -4.733   1.522  0.00  0.00    -0.360 OA
HETATM   28  H   UNL     1       9.514  -4.131   1.647  0.00  0.00     0.217 HD
ENDBRANCH   7  27
BRANCH   1  29
HETATM   29  C   UNL     1       3.315  -1.481  -0.933  0.00  0.00     0.036 C 
HETATM   30  C   UNL     1       2.384  -1.945   0.193  0.00  0.00     0.016 C 
BRANCH  29  31
HETATM   31  C   UNL     1       3.083  -2.318  -2.204  0.00  0.00     0.006 C 
HETATM   32  C   UNL     1       3.913  -1.850  -3.392  0.00  0.00     0.006 C 
ENDBRANCH  29  31
ENDBRANCH   1  29
TORSDOF 6
