MODEL 1
REMARK VINA RESULT:    -9.416      0.000      0.000
REMARK INTER + INTRA:         -13.369
REMARK INTER:                 -12.369
REMARK INTRA:                  -1.001
REMARK UNBOUND:                -0.926
REMARK  6 active torsions:
REMARK  status: ('A' for Active; 'I' for Inactive)
REMARK    1  A    between atoms: O_2  and  C_3 
REMARK    2  A    between atoms: C_8  and  N_9 
REMARK       I    between atoms: N_9  and  C_11 
REMARK    3  A    between atoms: C_11  and  C_13 
REMARK    4  A    between atoms: C_15  and  O_16 
REMARK    5  A    between atoms: C_23  and  C_24 
REMARK    6  A    between atoms: C_24  and  C_25 
ROOT
HETATM    1  C   UNL     1      -3.353  14.952  21.970  0.00  0.00     0.066 C 
HETATM    2  C   UNL     1      -2.170  15.666  22.309  0.00  0.00     0.035 C 
HETATM    3  C   UNL     1      -3.793  15.001  20.642  0.00  0.00     0.083 C 
HETATM    4  C   UNL     1      -3.213  15.858  19.697  0.00  0.00     0.069 C 
HETATM    5  C   UNL     1      -2.024  16.493  20.060  0.00  0.00     0.065 A 
HETATM    6  C   UNL     1      -1.451  16.367  21.317  0.00  0.00     0.020 A 
HETATM    7  N   UNL     1      -1.157  17.270  19.343  0.00  0.00    -0.277 N 
HETATM    8  H   UNL     1      -1.258  17.588  18.388  0.00  0.00     0.189 HD
HETATM    9  N   UNL     1      -0.027  17.581  19.997  0.00  0.00    -0.178 NA
HETATM   10  C   UNL     1      -0.167  16.973  21.189  0.00  0.00     0.071 A 
ENDROOT
BRANCH   1  11
HETATM   11  C   UNL     1      -3.856  14.006  23.017  0.00  0.00     0.260 C 
HETATM   12  N   UNL     1      -3.445  12.652  23.139  0.00  0.00    -0.318 N 
HETATM   13  C   UNL     1      -2.555  11.965  22.195  0.00  0.00     0.159 C 
HETATM   14  O   UNL     1      -4.628  14.552  23.811  0.00  0.00    -0.267 OA
BRANCH  12  15
HETATM   15  C   UNL     1      -3.922  11.849  24.256  0.00  0.00     0.039 A 
HETATM   16  C   UNL     1      -3.266  11.843  25.502  0.00  0.00     0.066 A 
HETATM   17  C   UNL     1      -3.796  11.145  26.601  0.00  0.00     0.070 A 
HETATM   18  C   UNL     1      -4.950  10.379  26.452  0.00  0.00     0.037 A 
HETATM   19  C   UNL     1      -5.581  10.329  25.218  0.00  0.00     0.005 A 
HETATM   20  C   UNL     1      -5.072  11.053  24.139  0.00  0.00     0.030 A 
BRANCH  17  21
HETATM   21  O   UNL     1      -3.097  11.250  27.779  0.00  0.00    -0.356 OA
HETATM   22  C   UNL     1      -1.961  10.391  27.881  0.00  0.00     0.210 C 
ENDBRANCH  17  21
ENDBRANCH  12  15
ENDBRANCH   1  11
BRANCH   3  23
HETATM   23  O   UNL     1      -4.722  14.143  20.122  0.00  0.00    -0.360 OA
HETATM   24  H   UNL     1      -4.235  13.455  19.628  0.00  0.00     0.217 HD
ENDBRANCH   3  23
BRANCH  10  25
HETATM   25  C   UNL     1       0.945  17.045  22.183  0.00  0.00     0.100 C 
BRANCH  25  26
HETATM   26  C   UNL     1       2.042  16.080  21.762  0.00  0.00    -0.052 A 
HETATM   27  C   UNL     1       1.721  14.940  21.009  0.00  0.00     0.007 A 
HETATM   28  C   UNL     1       2.688  13.971  20.737  0.00  0.00     0.001 A 
HETATM   29  C   UNL     1       3.993  14.127  21.196  0.00  0.00     0.007 A 
HETATM   30  C   UNL     1       4.354  15.274  21.914  0.00  0.00    -0.061 A 
HETATM   31  C   UNL     1       3.376  16.242  22.192  0.00  0.00     0.014 A 
HETATM   32  C   UNL     1       5.785  15.475  22.328  0.00  0.00     0.048 C 
ENDBRANCH  25  26
ENDBRANCH  10  25
TORSDOF 6
ENDMDL
MODEL 2
REMARK VINA RESULT:    -9.389      1.204      1.895
REMARK INTER + INTRA:         -13.334
REMARK INTER:                 -12.138
REMARK INTRA:                  -1.196
REMARK UNBOUND:                -0.926
REMARK  6 active torsions:
REMARK  status: ('A' for Active; 'I' for Inactive)
REMARK    1  A    between atoms: O_2  and  C_3 
REMARK    2  A    between atoms: C_8  and  N_9 
REMARK       I    between atoms: N_9  and  C_11 
REMARK    3  A    between atoms: C_11  and  C_13 
REMARK    4  A    between atoms: C_15  and  O_16 
REMARK    5  A    between atoms: C_23  and  C_24 
REMARK    6  A    between atoms: C_24  and  C_25 
ROOT
HETATM    1  C   UNL     1      -3.075  14.944  22.183  0.00  0.00     0.066 C 
HETATM    2  C   UNL     1      -2.015  15.848  22.468  0.00  0.00     0.035 C 
HETATM    3  C   UNL     1      -3.438  14.756  20.844  0.00  0.00     0.083 C 
HETATM    4  C   UNL     1      -2.914  15.548  19.812  0.00  0.00     0.069 C 
HETATM    5  C   UNL     1      -1.839  16.379  20.133  0.00  0.00     0.065 A 
HETATM    6  C   UNL     1      -1.331  16.499  21.419  0.00  0.00     0.020 A 
HETATM    7  N   UNL     1      -1.034  17.161  19.352  0.00  0.00    -0.277 N 
HETATM    8  H   UNL     1      -1.117  17.332  18.357  0.00  0.00     0.189 HD
HETATM    9  N   UNL     1       0.007  17.704  20.003  0.00  0.00    -0.178 NA
HETATM   10  C   UNL     1      -0.128  17.248  21.261  0.00  0.00     0.071 A 
ENDROOT
BRANCH   1  11
HETATM   11  C   UNL     1      -3.518  14.089  23.330  0.00  0.00     0.260 C 
HETATM   12  N   UNL     1      -2.835  12.925  23.773  0.00  0.00    -0.318 N 
HETATM   13  C   UNL     1      -1.665  12.342  23.104  0.00  0.00     0.159 C 
HETATM   14  O   UNL     1      -4.517  14.543  23.896  0.00  0.00    -0.267 OA
BRANCH  12  15
HETATM   15  C   UNL     1      -3.297  12.224  24.962  0.00  0.00     0.039 A 
HETATM   16  C   UNL     1      -4.509  11.508  24.980  0.00  0.00     0.066 A 
HETATM   17  C   UNL     1      -4.893  10.752  26.102  0.00  0.00     0.070 A 
HETATM   18  C   UNL     1      -4.108  10.761  27.252  0.00  0.00     0.037 A 
HETATM   19  C   UNL     1      -2.937  11.505  27.274  0.00  0.00     0.005 A 
HETATM   20  C   UNL     1      -2.542  12.225  26.145  0.00  0.00     0.030 A 
BRANCH  17  21
HETATM   21  O   UNL     1      -6.071  10.054  25.987  0.00  0.00    -0.356 OA
HETATM   22  C   UNL     1      -6.453   9.737  24.648  0.00  0.00     0.210 C 
ENDBRANCH  17  21
ENDBRANCH  12  15
ENDBRANCH   1  11
BRANCH   3  23
HETATM   23  O   UNL     1      -4.218  13.721  20.410  0.00  0.00    -0.360 OA
HETATM   24  H   UNL     1      -4.980  14.111  19.938  0.00  0.00     0.217 HD
ENDBRANCH   3  23
BRANCH  10  25
HETATM   25  C   UNL     1       0.904  17.599  22.282  0.00  0.00     0.100 C 
BRANCH  25  26
HETATM   26  C   UNL     1       1.726  16.359  22.594  0.00  0.00    -0.052 A 
HETATM   27  C   UNL     1       1.370  15.535  23.673  0.00  0.00     0.007 A 
HETATM   28  C   UNL     1       2.191  14.477  24.064  0.00  0.00     0.001 A 
HETATM   29  C   UNL     1       3.374  14.211  23.378  0.00  0.00     0.007 A 
HETATM   30  C   UNL     1       3.736  14.989  22.272  0.00  0.00    -0.061 A 
HETATM   31  C   UNL     1       2.910  16.057  21.888  0.00  0.00     0.014 A 
HETATM   32  C   UNL     1       4.967  14.638  21.484  0.00  0.00     0.048 C 
ENDBRANCH  25  26
ENDBRANCH  10  25
TORSDOF 6
ENDMDL
MODEL 3
REMARK VINA RESULT:    -8.878      2.791      3.555
REMARK INTER + INTRA:         -12.659
REMARK INTER:                 -11.422
REMARK INTRA:                  -1.237
REMARK UNBOUND:                -0.926
REMARK  6 active torsions:
REMARK  status: ('A' for Active; 'I' for Inactive)
REMARK    1  A    between atoms: O_2  and  C_3 
REMARK    2  A    between atoms: C_8  and  N_9 
REMARK       I    between atoms: N_9  and  C_11 
REMARK    3  A    between atoms: C_11  and  C_13 
REMARK    4  A    between atoms: C_15  and  O_16 
REMARK    5  A    between atoms: C_23  and  C_24 
REMARK    6  A    between atoms: C_24  and  C_25 
ROOT
HETATM    1  C   UNL     1      -1.642  12.752  22.666  0.00  0.00     0.066 C 
HETATM    2  C   UNL     1      -1.192  14.094  22.805  0.00  0.00     0.035 C 
HETATM    3  C   UNL     1      -2.428  12.434  21.552  0.00  0.00     0.083 C 
HETATM    4  C   UNL     1      -2.921  13.417  20.683  0.00  0.00     0.069 C 
HETATM    5  C   UNL     1      -2.407  14.707  20.827  0.00  0.00     0.065 A 
HETATM    6  C   UNL     1      -1.504  15.056  21.822  0.00  0.00     0.020 A 
HETATM    7  N   UNL     1      -2.574  15.838  20.076  0.00  0.00    -0.277 N 
HETATM    8  H   UNL     1      -3.179  15.963  19.274  0.00  0.00     0.189 HD
HETATM    9  N   UNL     1      -1.788  16.862  20.441  0.00  0.00    -0.178 NA
HETATM   10  C   UNL     1      -1.076  16.371  21.472  0.00  0.00     0.071 A 
ENDROOT
BRANCH   1  11
HETATM   11  C   UNL     1      -1.005  11.760  23.590  0.00  0.00     0.260 C 
HETATM   12  N   UNL     1      -1.723  10.911  24.474  0.00  0.00    -0.318 N 
HETATM   13  C   UNL     1      -3.175  10.963  24.680  0.00  0.00     0.159 C 
HETATM   14  O   UNL     1       0.222  11.713  23.455  0.00  0.00    -0.267 OA
BRANCH  12  15
HETATM   15  C   UNL     1      -1.009   9.912  25.256  0.00  0.00     0.039 A 
HETATM   16  C   UNL     1      -0.463   8.756  24.667  0.00  0.00     0.066 A 
HETATM   17  C   UNL     1       0.312   7.852  25.415  0.00  0.00     0.070 A 
HETATM   18  C   UNL     1       0.490   8.050  26.782  0.00  0.00     0.037 A 
HETATM   19  C   UNL     1      -0.085   9.155  27.393  0.00  0.00     0.005 A 
HETATM   20  C   UNL     1      -0.823  10.069  26.639  0.00  0.00     0.030 A 
BRANCH  17  21
HETATM   21  O   UNL     1       0.834   6.786  24.724  0.00  0.00    -0.356 OA
HETATM   22  C   UNL     1      -0.133   5.852  24.243  0.00  0.00     0.210 C 
ENDBRANCH  17  21
ENDBRANCH  12  15
ENDBRANCH   1  11
BRANCH   3  23
HETATM   23  O   UNL     1      -2.676  11.153  21.143  0.00  0.00    -0.360 OA
HETATM   24  H   UNL     1      -3.625  11.101  20.915  0.00  0.00     0.217 HD
ENDBRANCH   3  23
BRANCH  10  25
HETATM   25  C   UNL     1      -0.030  17.223  22.112  0.00  0.00     0.100 C 
BRANCH  25  26
HETATM   26  C   UNL     1       1.341  16.687  21.727  0.00  0.00    -0.052 A 
HETATM   27  C   UNL     1       1.838  16.900  20.432  0.00  0.00     0.007 A 
HETATM   28  C   UNL     1       3.025  16.296  20.016  0.00  0.00     0.001 A 
HETATM   29  C   UNL     1       3.746  15.481  20.886  0.00  0.00     0.007 A 
HETATM   30  C   UNL     1       3.297  15.283  22.198  0.00  0.00    -0.061 A 
HETATM   31  C   UNL     1       2.098  15.887  22.609  0.00  0.00     0.014 A 
HETATM   32  C   UNL     1       4.127  14.476  23.156  0.00  0.00     0.048 C 
ENDBRANCH  25  26
ENDBRANCH  10  25
TORSDOF 6
ENDMDL
MODEL 4
REMARK VINA RESULT:    -8.769      3.298      8.157
REMARK INTER + INTRA:         -12.515
REMARK INTER:                 -11.458
REMARK INTRA:                  -1.057
REMARK UNBOUND:                -0.926
REMARK  6 active torsions:
REMARK  status: ('A' for Active; 'I' for Inactive)
REMARK    1  A    between atoms: O_2  and  C_3 
REMARK    2  A    between atoms: C_8  and  N_9 
REMARK       I    between atoms: N_9  and  C_11 
REMARK    3  A    between atoms: C_11  and  C_13 
REMARK    4  A    between atoms: C_15  and  O_16 
REMARK    5  A    between atoms: C_23  and  C_24 
REMARK    6  A    between atoms: C_24  and  C_25 
ROOT
HETATM    1  C   UNL     1      -0.086  12.464  23.175  0.00  0.00     0.066 C 
HETATM    2  C   UNL     1      -1.232  13.282  23.376  0.00  0.00     0.035 C 
HETATM    3  C   UNL     1      -0.220  11.084  23.371  0.00  0.00     0.083 C 
HETATM    4  C   UNL     1      -1.379  10.519  23.920  0.00  0.00     0.069 C 
HETATM    5  C   UNL     1      -2.492  11.352  24.047  0.00  0.00     0.065 A 
HETATM    6  C   UNL     1      -2.469  12.702  23.726  0.00  0.00     0.020 A 
HETATM    7  N   UNL     1      -3.783  11.089  24.413  0.00  0.00    -0.277 N 
HETATM    8  H   UNL     1      -4.168  10.208  24.731  0.00  0.00     0.189 HD
HETATM    9  N   UNL     1      -4.620  12.128  24.269  0.00  0.00    -0.178 NA
HETATM   10  C   UNL     1      -3.836  13.107  23.782  0.00  0.00     0.071 A 
ENDROOT
BRANCH   1  11
HETATM   11  C   UNL     1       1.079  13.138  22.516  0.00  0.00     0.260 C 
HETATM   12  N   UNL     1       1.989  14.000  23.183  0.00  0.00    -0.318 N 
HETATM   13  C   UNL     1       1.854  14.432  24.579  0.00  0.00     0.159 C 
HETATM   14  O   UNL     1       1.201  12.811  21.331  0.00  0.00    -0.267 OA
BRANCH  12  15
HETATM   15  C   UNL     1       3.146  14.522  22.469  0.00  0.00     0.039 A 
HETATM   16  C   UNL     1       4.449  14.425  22.992  0.00  0.00     0.066 A 
HETATM   17  C   UNL     1       5.567  14.840  22.246  0.00  0.00     0.070 A 
HETATM   18  C   UNL     1       5.392  15.430  20.996  0.00  0.00     0.037 A 
HETATM   19  C   UNL     1       4.111  15.584  20.487  0.00  0.00     0.005 A 
HETATM   20  C   UNL     1       3.008  15.137  21.215  0.00  0.00     0.030 A 
BRANCH  17  21
HETATM   21  O   UNL     1       6.792  14.653  22.836  0.00  0.00    -0.356 OA
HETATM   22  C   UNL     1       7.509  15.854  23.126  0.00  0.00     0.210 C 
ENDBRANCH  17  21
ENDBRANCH  12  15
ENDBRANCH   1  11
BRANCH   3  23
HETATM   23  O   UNL     1       0.696  10.167  22.936  0.00  0.00    -0.360 OA
HETATM   24  H   UNL     1       0.227   9.315  22.838  0.00  0.00     0.217 HD
ENDBRANCH   3  23
BRANCH  10  25
HETATM   25  C   UNL     1      -4.443  14.425  23.430  0.00  0.00     0.100 C 
BRANCH  25  26
HETATM   26  C   UNL     1      -4.260  14.667  21.940  0.00  0.00    -0.052 A 
HETATM   27  C   UNL     1      -3.402  15.685  21.495  0.00  0.00     0.007 A 
HETATM   28  C   UNL     1      -3.332  16.016  20.141  0.00  0.00     0.001 A 
HETATM   29  C   UNL     1      -4.102  15.329  19.205  0.00  0.00     0.007 A 
HETATM   30  C   UNL     1      -4.935  14.281  19.613  0.00  0.00    -0.061 A 
HETATM   31  C   UNL     1      -5.008  13.957  20.977  0.00  0.00     0.014 A 
HETATM   32  C   UNL     1      -5.694  13.488  18.585  0.00  0.00     0.048 C 
ENDBRANCH  25  26
ENDBRANCH  10  25
TORSDOF 6
ENDMDL
MODEL 5
REMARK VINA RESULT:    -8.730      2.265      2.720
REMARK INTER + INTRA:         -12.463
REMARK INTER:                 -11.342
REMARK INTRA:                  -1.121
REMARK UNBOUND:                -0.926
REMARK  6 active torsions:
REMARK  status: ('A' for Active; 'I' for Inactive)
REMARK    1  A    between atoms: O_2  and  C_3 
REMARK    2  A    between atoms: C_8  and  N_9 
REMARK       I    between atoms: N_9  and  C_11 
REMARK    3  A    between atoms: C_11  and  C_13 
REMARK    4  A    between atoms: C_15  and  O_16 
REMARK    5  A    between atoms: C_23  and  C_24 
REMARK    6  A    between atoms: C_24  and  C_25 
ROOT
HETATM    1  C   UNL     1      -2.531  13.833  22.133  0.00  0.00     0.066 C 
HETATM    2  C   UNL     1      -1.743  14.986  22.402  0.00  0.00     0.035 C 
HETATM    3  C   UNL     1      -3.207  13.769  20.909  0.00  0.00     0.083 C 
HETATM    4  C   UNL     1      -3.270  14.863  20.035  0.00  0.00     0.069 C 
HETATM    5  C   UNL     1      -2.437  15.948  20.315  0.00  0.00     0.065 A 
HETATM    6  C   UNL     1      -1.625  16.010  21.439  0.00  0.00     0.020 A 
HETATM    7  N   UNL     1      -2.167  17.088  19.610  0.00  0.00    -0.277 N 
HETATM    8  H   UNL     1      -2.590  17.392  18.742  0.00  0.00     0.189 HD
HETATM    9  N   UNL     1      -1.183  17.838  20.131  0.00  0.00    -0.178 NA
HETATM   10  C   UNL     1      -0.796  17.150  21.220  0.00  0.00     0.071 A 
ENDROOT
BRANCH   1  11
HETATM   11  C   UNL     1      -2.341  12.688  23.081  0.00  0.00     0.260 C 
HETATM   12  N   UNL     1      -1.078  12.227  23.539  0.00  0.00    -0.318 N 
HETATM   13  C   UNL     1       0.215  12.737  23.066  0.00  0.00     0.159 C 
HETATM   14  O   UNL     1      -3.415  12.222  23.475  0.00  0.00    -0.267 OA
BRANCH  12  15
HETATM   15  C   UNL     1      -1.014  11.170  24.538  0.00  0.00     0.039 A 
HETATM   16  C   UNL     1      -0.702   9.840  24.196  0.00  0.00     0.066 A 
HETATM   17  C   UNL     1      -0.543   8.852  25.183  0.00  0.00     0.070 A 
HETATM   18  C   UNL     1      -0.767   9.160  26.523  0.00  0.00     0.037 A 
HETATM   19  C   UNL     1      -1.128  10.453  26.875  0.00  0.00     0.005 A 
HETATM   20  C   UNL     1      -1.249  11.439  25.895  0.00  0.00     0.030 A 
BRANCH  17  21
HETATM   21  O   UNL     1      -0.191   7.601  24.737  0.00  0.00    -0.356 OA
HETATM   22  C   UNL     1       1.014   7.554  23.973  0.00  0.00     0.210 C 
ENDBRANCH  17  21
ENDBRANCH  12  15
ENDBRANCH   1  11
BRANCH   3  23
HETATM   23  O   UNL     1      -3.746  12.619  20.402  0.00  0.00    -0.360 OA
HETATM   24  H   UNL     1      -4.320  12.239  21.096  0.00  0.00     0.217 HD
ENDBRANCH   3  23
BRANCH  10  25
HETATM   25  C   UNL     1       0.346  17.656  22.038  0.00  0.00     0.100 C 
BRANCH  25  26
HETATM   26  C   UNL     1       1.582  16.831  21.717  0.00  0.00    -0.052 A 
HETATM   27  C   UNL     1       2.129  16.862  20.424  0.00  0.00     0.007 A 
HETATM   28  C   UNL     1       3.173  16.006  20.071  0.00  0.00     0.001 A 
HETATM   29  C   UNL     1       3.700  15.114  21.002  0.00  0.00     0.007 A 
HETATM   30  C   UNL     1       3.204  15.088  22.311  0.00  0.00    -0.061 A 
HETATM   31  C   UNL     1       2.149  15.947  22.659  0.00  0.00     0.014 A 
HETATM   32  C   UNL     1       3.840  14.186  23.332  0.00  0.00     0.048 C 
ENDBRANCH  25  26
ENDBRANCH  10  25
TORSDOF 6
ENDMDL
MODEL 6
REMARK VINA RESULT:    -8.573      3.593      8.180
REMARK INTER + INTRA:         -12.256
REMARK INTER:                 -11.331
REMARK INTRA:                  -0.925
REMARK UNBOUND:                -0.926
REMARK  6 active torsions:
REMARK  status: ('A' for Active; 'I' for Inactive)
REMARK    1  A    between atoms: O_2  and  C_3 
REMARK    2  A    between atoms: C_8  and  N_9 
REMARK       I    between atoms: N_9  and  C_11 
REMARK    3  A    between atoms: C_11  and  C_13 
REMARK    4  A    between atoms: C_15  and  O_16 
REMARK    5  A    between atoms: C_23  and  C_24 
REMARK    6  A    between atoms: C_24  and  C_25 
ROOT
HETATM    1  C   UNL     1       0.014  15.016  25.045  0.00  0.00     0.066 C 
HETATM    2  C   UNL     1      -0.960  14.103  24.553  0.00  0.00     0.035 C 
HETATM    3  C   UNL     1      -0.040  15.368  26.398  0.00  0.00     0.083 C 
HETATM    4  C   UNL     1      -1.109  14.992  27.224  0.00  0.00     0.069 C 
HETATM    5  C   UNL     1      -2.006  14.053  26.713  0.00  0.00     0.065 A 
HETATM    6  C   UNL     1      -1.921  13.548  25.423  0.00  0.00     0.020 A 
HETATM    7  N   UNL     1      -3.054  13.393  27.292  0.00  0.00    -0.277 N 
HETATM    8  H   UNL     1      -3.423  13.519  28.227  0.00  0.00     0.189 HD
HETATM    9  N   UNL     1      -3.597  12.438  26.522  0.00  0.00    -0.178 NA
HETATM   10  C   UNL     1      -2.864  12.478  25.395  0.00  0.00     0.071 A 
ENDROOT
BRANCH   1  11
HETATM   11  C   UNL     1       1.156  15.300  24.119  0.00  0.00     0.260 C 
HETATM   12  N   UNL     1       2.220  14.396  23.856  0.00  0.00    -0.318 N 
HETATM   13  C   UNL     1       2.402  13.107  24.533  0.00  0.00     0.159 C 
HETATM   14  O   UNL     1       1.041  16.392  23.553  0.00  0.00    -0.267 OA
BRANCH  12  15
HETATM   15  C   UNL     1       3.226  14.735  22.860  0.00  0.00     0.039 A 
HETATM   16  C   UNL     1       4.592  14.832  23.186  0.00  0.00     0.066 A 
HETATM   17  C   UNL     1       5.564  15.058  22.195  0.00  0.00     0.070 A 
HETATM   18  C   UNL     1       5.179  15.267  20.874  0.00  0.00     0.037 A 
HETATM   19  C   UNL     1       3.833  15.229  20.541  0.00  0.00     0.005 A 
HETATM   20  C   UNL     1       2.875  14.968  21.522  0.00  0.00     0.030 A 
BRANCH  17  21
HETATM   21  O   UNL     1       6.870  15.085  22.623  0.00  0.00    -0.356 OA
HETATM   22  C   UNL     1       7.454  16.386  22.684  0.00  0.00     0.210 C 
ENDBRANCH  17  21
ENDBRANCH  12  15
ENDBRANCH   1  11
BRANCH   3  23
HETATM   23  O   UNL     1       0.984  15.987  27.060  0.00  0.00    -0.360 OA
HETATM   24  H   UNL     1       1.376  16.636  26.443  0.00  0.00     0.217 HD
ENDBRANCH   3  23
BRANCH  10  25
HETATM   25  C   UNL     1      -3.141  11.495  24.305  0.00  0.00     0.100 C 
BRANCH  25  26
HETATM   26  C   UNL     1      -3.154  12.230  22.974  0.00  0.00    -0.052 A 
HETATM   27  C   UNL     1      -2.269  11.848  21.953  0.00  0.00     0.007 A 
HETATM   28  C   UNL     1      -2.165  12.599  20.782  0.00  0.00     0.001 A 
HETATM   29  C   UNL     1      -2.951  13.735  20.599  0.00  0.00     0.007 A 
HETATM   30  C   UNL     1      -3.873  14.118  21.581  0.00  0.00    -0.061 A 
HETATM   31  C   UNL     1      -3.968  13.363  22.761  0.00  0.00     0.014 A 
HETATM   32  C   UNL     1      -4.779  15.292  21.336  0.00  0.00     0.048 C 
ENDBRANCH  25  26
ENDBRANCH  10  25
TORSDOF 6
ENDMDL
MODEL 7
REMARK VINA RESULT:    -8.534      3.519      7.848
REMARK INTER + INTRA:         -12.204
REMARK INTER:                 -10.790
REMARK INTRA:                  -1.414
REMARK UNBOUND:                -0.926
REMARK  6 active torsions:
REMARK  status: ('A' for Active; 'I' for Inactive)
REMARK    1  A    between atoms: O_2  and  C_3 
REMARK    2  A    between atoms: C_8  and  N_9 
REMARK       I    between atoms: N_9  and  C_11 
REMARK    3  A    between atoms: C_11  and  C_13 
REMARK    4  A    between atoms: C_15  and  O_16 
REMARK    5  A    between atoms: C_23  and  C_24 
REMARK    6  A    between atoms: C_24  and  C_25 
ROOT
HETATM    1  C   UNL     1      -0.599  14.893  25.145  0.00  0.00     0.066 C 
HETATM    2  C   UNL     1      -1.615  13.955  24.813  0.00  0.00     0.035 C 
HETATM    3  C   UNL     1      -0.432  15.234  26.492  0.00  0.00     0.083 C 
HETATM    4  C   UNL     1      -1.334  14.820  27.482  0.00  0.00     0.069 C 
HETATM    5  C   UNL     1      -2.277  13.857  27.119  0.00  0.00     0.065 A 
HETATM    6  C   UNL     1      -2.398  13.363  25.828  0.00  0.00     0.020 A 
HETATM    7  N   UNL     1      -3.192  13.161  27.859  0.00  0.00    -0.277 N 
HETATM    8  H   UNL     1      -3.400  13.269  28.844  0.00  0.00     0.189 HD
HETATM    9  N   UNL     1      -3.830  12.195  27.181  0.00  0.00    -0.178 NA
HETATM   10  C   UNL     1      -3.300  12.265  25.946  0.00  0.00     0.071 A 
ENDROOT
BRANCH   1  11
HETATM   11  C   UNL     1       0.361  15.219  24.042  0.00  0.00     0.260 C 
HETATM   12  N   UNL     1       1.437  14.382  23.641  0.00  0.00    -0.318 N 
HETATM   13  C   UNL     1       1.819  13.138  24.320  0.00  0.00     0.159 C 
HETATM   14  O   UNL     1       0.077  16.275  23.469  0.00  0.00    -0.267 OA
BRANCH  12  15
HETATM   15  C   UNL     1       2.248  14.749  22.490  0.00  0.00     0.039 A 
HETATM   16  C   UNL     1       3.521  15.333  22.632  0.00  0.00     0.066 A 
HETATM   17  C   UNL     1       4.336  15.588  21.514  0.00  0.00     0.070 A 
HETATM   18  C   UNL     1       3.860  15.333  20.231  0.00  0.00     0.037 A 
HETATM   19  C   UNL     1       2.586  14.808  20.066  0.00  0.00     0.005 A 
HETATM   20  C   UNL     1       1.796  14.523  21.180  0.00  0.00     0.030 A 
BRANCH  17  21
HETATM   21  O   UNL     1       5.577  16.114  21.777  0.00  0.00    -0.356 OA
HETATM   22  C   UNL     1       6.403  15.310  22.620  0.00  0.00     0.210 C 
ENDBRANCH  17  21
ENDBRANCH  12  15
ENDBRANCH   1  11
BRANCH   3  23
HETATM   23  O   UNL     1       0.671  15.879  26.977  0.00  0.00    -0.360 OA
HETATM   24  H   UNL     1       1.337  15.195  27.188  0.00  0.00     0.217 HD
ENDBRANCH   3  23
BRANCH  10  25
HETATM   25  C   UNL     1      -3.729  11.282  24.907  0.00  0.00     0.100 C 
BRANCH  25  26
HETATM   26  C   UNL     1      -2.531  10.932  24.039  0.00  0.00    -0.052 A 
HETATM   27  C   UNL     1      -1.484  10.161  24.568  0.00  0.00     0.007 A 
HETATM   28  C   UNL     1      -0.314   9.951  23.837  0.00  0.00     0.001 A 
HETATM   29  C   UNL     1      -0.171  10.492  22.562  0.00  0.00     0.007 A 
HETATM   30  C   UNL     1      -1.215  11.231  21.990  0.00  0.00    -0.061 A 
HETATM   31  C   UNL     1      -2.387  11.445  22.733  0.00  0.00     0.014 A 
HETATM   32  C   UNL     1      -1.087  11.734  20.580  0.00  0.00     0.048 C 
ENDBRANCH  25  26
ENDBRANCH  10  25
TORSDOF 6
ENDMDL
MODEL 8
REMARK VINA RESULT:    -8.426      3.963      6.623
REMARK INTER + INTRA:         -12.061
REMARK INTER:                 -11.094
REMARK INTRA:                  -0.967
REMARK UNBOUND:                -0.926
REMARK  6 active torsions:
REMARK  status: ('A' for Active; 'I' for Inactive)
REMARK    1  A    between atoms: O_2  and  C_3 
REMARK    2  A    between atoms: C_8  and  N_9 
REMARK       I    between atoms: N_9  and  C_11 
REMARK    3  A    between atoms: C_11  and  C_13 
REMARK    4  A    between atoms: C_15  and  O_16 
REMARK    5  A    between atoms: C_23  and  C_24 
REMARK    6  A    between atoms: C_24  and  C_25 
ROOT
HETATM    1  C   UNL     1      -1.524  11.088  25.105  0.00  0.00     0.066 C 
HETATM    2  C   UNL     1      -1.752  11.821  23.908  0.00  0.00     0.035 C 
HETATM    3  C   UNL     1      -2.414  11.272  26.169  0.00  0.00     0.083 C 
HETATM    4  C   UNL     1      -3.401  12.267  26.151  0.00  0.00     0.069 C 
HETATM    5  C   UNL     1      -3.622  12.920  24.937  0.00  0.00     0.065 A 
HETATM    6  C   UNL     1      -2.870  12.675  23.797  0.00  0.00     0.020 A 
HETATM    7  N   UNL     1      -4.574  13.824  24.555  0.00  0.00    -0.277 N 
HETATM    8  H   UNL     1      -5.288  14.250  25.132  0.00  0.00     0.189 HD
HETATM    9  N   UNL     1      -4.562  14.117  23.245  0.00  0.00    -0.178 NA
HETATM   10  C   UNL     1      -3.561  13.363  22.756  0.00  0.00     0.071 A 
ENDROOT
BRANCH   1  11
HETATM   11  C   UNL     1      -0.502   9.996  25.007  0.00  0.00     0.260 C 
HETATM   12  N   UNL     1       0.887  10.213  24.804  0.00  0.00    -0.318 N 
HETATM   13  C   UNL     1       1.496  11.525  24.557  0.00  0.00     0.159 C 
HETATM   14  O   UNL     1      -0.993   8.877  25.186  0.00  0.00    -0.267 OA
BRANCH  12  15
HETATM   15  C   UNL     1       1.805   9.083  24.825  0.00  0.00     0.039 A 
HETATM   16  C   UNL     1       2.648   8.829  25.923  0.00  0.00     0.066 A 
HETATM   17  C   UNL     1       3.453   7.678  25.973  0.00  0.00     0.070 A 
HETATM   18  C   UNL     1       3.487   6.801  24.892  0.00  0.00     0.037 A 
HETATM   19  C   UNL     1       2.704   7.063  23.776  0.00  0.00     0.005 A 
HETATM   20  C   UNL     1       1.879   8.187  23.747  0.00  0.00     0.030 A 
BRANCH  17  21
HETATM   21  O   UNL     1       4.198   7.509  27.116  0.00  0.00    -0.356 OA
HETATM   22  C   UNL     1       4.985   6.318  27.148  0.00  0.00     0.210 C 
ENDBRANCH  17  21
ENDBRANCH  12  15
ENDBRANCH   1  11
BRANCH   3  23
HETATM   23  O   UNL     1      -2.489  10.433  27.246  0.00  0.00    -0.360 OA
HETATM   24  H   UNL     1      -3.306  10.658  27.732  0.00  0.00     0.217 HD
ENDBRANCH   3  23
BRANCH  10  25
HETATM   25  C   UNL     1      -3.283  13.376  21.289  0.00  0.00     0.100 C 
BRANCH  25  26
HETATM   26  C   UNL     1      -2.891  14.787  20.878  0.00  0.00    -0.052 A 
HETATM   27  C   UNL     1      -3.749  15.545  20.066  0.00  0.00     0.007 A 
HETATM   28  C   UNL     1      -3.345  16.781  19.561  0.00  0.00     0.001 A 
HETATM   29  C   UNL     1      -2.086  17.293  19.868  0.00  0.00     0.007 A 
HETATM   30  C   UNL     1      -1.224  16.580  20.711  0.00  0.00    -0.061 A 
HETATM   31  C   UNL     1      -1.632  15.333  21.209  0.00  0.00     0.014 A 
HETATM   32  C   UNL     1       0.095  17.181  21.108  0.00  0.00     0.048 C 
ENDBRANCH  25  26
ENDBRANCH  10  25
TORSDOF 6
ENDMDL
MODEL 9
REMARK VINA RESULT:    -8.376      2.311      3.401
REMARK INTER + INTRA:         -11.996
REMARK INTER:                 -11.070
REMARK INTRA:                  -0.926
REMARK UNBOUND:                -0.926
REMARK  6 active torsions:
REMARK  status: ('A' for Active; 'I' for Inactive)
REMARK    1  A    between atoms: O_2  and  C_3 
REMARK    2  A    between atoms: C_8  and  N_9 
REMARK       I    between atoms: N_9  and  C_11 
REMARK    3  A    between atoms: C_11  and  C_13 
REMARK    4  A    between atoms: C_15  and  O_16 
REMARK    5  A    between atoms: C_23  and  C_24 
REMARK    6  A    between atoms: C_24  and  C_25 
ROOT
HETATM    1  C   UNL     1      -2.589  13.801  22.595  0.00  0.00     0.066 C 
HETATM    2  C   UNL     1      -1.840  14.824  21.950  0.00  0.00     0.035 C 
HETATM    3  C   UNL     1      -3.975  13.780  22.402  0.00  0.00     0.083 C 
HETATM    4  C   UNL     1      -4.652  14.819  21.749  0.00  0.00     0.069 C 
HETATM    5  C   UNL     1      -3.872  15.768  21.086  0.00  0.00     0.065 A 
HETATM    6  C   UNL     1      -2.484  15.759  21.113  0.00  0.00     0.020 A 
HETATM    7  N   UNL     1      -4.212  16.807  20.265  0.00  0.00    -0.277 N 
HETATM    8  H   UNL     1      -5.143  17.126  20.027  0.00  0.00     0.189 HD
HETATM    9  N   UNL     1      -3.167  17.415  19.683  0.00  0.00    -0.178 NA
HETATM   10  C   UNL     1      -2.102  16.734  20.144  0.00  0.00     0.071 A 
ENDROOT
BRANCH   1  11
HETATM   11  C   UNL     1      -1.780  12.696  23.201  0.00  0.00     0.260 C 
HETATM   12  N   UNL     1      -1.092  12.792  24.440  0.00  0.00    -0.318 N 
HETATM   13  C   UNL     1      -0.992  14.017  25.243  0.00  0.00     0.159 C 
HETATM   14  O   UNL     1      -1.826  11.659  22.532  0.00  0.00    -0.267 OA
BRANCH  12  15
HETATM   15  C   UNL     1      -0.418  11.622  24.985  0.00  0.00     0.039 A 
HETATM   16  C   UNL     1      -1.050  10.757  25.898  0.00  0.00     0.066 A 
HETATM   17  C   UNL     1      -0.425   9.576  26.336  0.00  0.00     0.070 A 
HETATM   18  C   UNL     1       0.873   9.280  25.928  0.00  0.00     0.037 A 
HETATM   19  C   UNL     1       1.534  10.148  25.071  0.00  0.00     0.005 A 
HETATM   20  C   UNL     1       0.896  11.300  24.610  0.00  0.00     0.030 A 
BRANCH  17  21
HETATM   21  O   UNL     1      -1.156   8.784  27.188  0.00  0.00    -0.356 OA
HETATM   22  C   UNL     1      -0.398   7.797  27.888  0.00  0.00     0.210 C 
ENDBRANCH  17  21
ENDBRANCH  12  15
ENDBRANCH   1  11
BRANCH   3  23
HETATM   23  O   UNL     1      -4.765  12.707  22.710  0.00  0.00    -0.360 OA
HETATM   24  H   UNL     1      -5.378  12.992  23.415  0.00  0.00     0.217 HD
ENDBRANCH   3  23
BRANCH  10  25
HETATM   25  C   UNL     1      -0.736  17.093  19.657  0.00  0.00     0.100 C 
BRANCH  25  26
HETATM   26  C   UNL     1       0.281  16.700  20.717  0.00  0.00    -0.052 A 
HETATM   27  C   UNL     1       0.361  17.427  21.915  0.00  0.00     0.007 A 
HETATM   28  C   UNL     1       1.379  17.175  22.835  0.00  0.00     0.001 A 
HETATM   29  C   UNL     1       2.326  16.184  22.587  0.00  0.00     0.007 A 
HETATM   30  C   UNL     1       2.248  15.413  21.420  0.00  0.00    -0.061 A 
HETATM   31  C   UNL     1       1.226  15.676  20.494  0.00  0.00     0.014 A 
HETATM   32  C   UNL     1       3.221  14.288  21.204  0.00  0.00     0.048 C 
ENDBRANCH  25  26
ENDBRANCH  10  25
TORSDOF 6
ENDMDL
