MODEL 1
REMARK VINA RESULT:    -7.806      0.000      0.000
REMARK INTER + INTRA:         -11.389
REMARK INTER:                 -10.122
REMARK INTRA:                  -1.266
REMARK UNBOUND:                -1.301
REMARK  6 active torsions:
REMARK  status: ('A' for Active; 'I' for Inactive)
REMARK    1  A    between atoms: C_2  and  C_3 
REMARK    2  A    between atoms: C_3  and  C_4 
REMARK    3  A    between atoms: C_6  and  C_7 
REMARK    4  A    between atoms: C_12  and  C_13 
REMARK    5  A    between atoms: C_23  and  O_24 
REMARK    6  A    between atoms: C_26  and  O_27 
ROOT
HETATM    1  C   UNL     1       4.537   7.748  19.394  0.00  0.00     0.102 A 
HETATM    2  N   UNL     1       5.523   7.499  18.508  0.00  0.00    -0.174 NA
HETATM    3  N   UNL     1       6.601   8.103  19.028  0.00  0.00    -0.288 N 
HETATM    4  H   UNL     1       7.470   8.074  18.504  0.00  0.00     0.188 HD
HETATM    5  C   UNL     1       6.377   8.671  20.243  0.00  0.00     0.124 A 
HETATM    6  C   UNL     1       5.049   8.448  20.542  0.00  0.00     0.022 A 
ENDROOT
BRANCH   1   7
HETATM    7  C   UNL     1       3.178   7.259  19.123  0.00  0.00     0.029 A 
HETATM    8  C   UNL     1       2.750   6.035  19.657  0.00  0.00     0.026 A 
HETATM    9  C   UNL     1       1.513   5.471  19.301  0.00  0.00    -0.024 A 
HETATM   10  C   UNL     1       0.675   6.192  18.445  0.00  0.00     0.074 A 
HETATM   11  C   UNL     1       1.051   7.441  17.953  0.00  0.00     0.074 A 
HETATM   12  C   UNL     1       2.292   7.968  18.299  0.00  0.00     0.081 A 
BRANCH   9  13
HETATM   13  C   UNL     1       1.152   4.098  19.819  0.00  0.00     0.041 C 
BRANCH  13  14
HETATM   14  C   UNL     1       2.078   2.982  19.326  0.00  0.00     0.000 C 
HETATM   15  C   UNL     1       2.072   2.833  17.811  0.00  0.00     0.005 C 
ENDBRANCH  13  14
ENDBRANCH   9  13
BRANCH  10  16
HETATM   16  O   UNL     1      -0.535   5.660  18.097  0.00  0.00    -0.360 OA
HETATM   17  H   UNL     1      -1.011   6.305  17.549  0.00  0.00     0.217 HD
ENDBRANCH  10  16
BRANCH  12  18
HETATM   18  O   UNL     1       2.601   9.203  17.786  0.00  0.00    -0.360 OA
HETATM   19  H   UNL     1       3.516   9.125  17.428  0.00  0.00     0.217 HD
ENDBRANCH  12  18
ENDBRANCH   1   7
BRANCH   6  20
HETATM   20  C   UNL     1       4.438   8.846  21.810  0.00  0.00    -0.019 A 
HETATM   21  C   UNL     1       4.456  10.184  22.236  0.00  0.00     0.015 A 
HETATM   22  C   UNL     1       3.841  10.562  23.436  0.00  0.00     0.040 A 
HETATM   23  C   UNL     1       3.180   9.613  24.210  0.00  0.00     0.102 A 
HETATM   24  C   UNL     1       3.175   8.277  23.810  0.00  0.00     0.102 A 
HETATM   25  O   UNL     1       2.570  10.058  25.353  0.00  0.00    -0.346 OA
HETATM   26  C   UNL     1       3.812   7.896  22.629  0.00  0.00     0.052 A 
HETATM   27  O   UNL     1       2.550   7.282  24.515  0.00  0.00    -0.346 OA
HETATM   28  C   UNL     1       2.264   7.693  25.854  0.00  0.00     0.202 C 
HETATM   29  C   UNL     1       1.656   9.086  25.877  0.00  0.00     0.202 C 
ENDBRANCH   6  20
TORSDOF 6
ENDMDL
MODEL 2
REMARK VINA RESULT:    -7.723      5.535      8.064
REMARK INTER + INTRA:         -11.282
REMARK INTER:                  -9.802
REMARK INTRA:                  -1.480
REMARK UNBOUND:                -1.301
REMARK  6 active torsions:
REMARK  status: ('A' for Active; 'I' for Inactive)
REMARK    1  A    between atoms: C_2  and  C_3 
REMARK    2  A    between atoms: C_3  and  C_4 
REMARK    3  A    between atoms: C_6  and  C_7 
REMARK    4  A    between atoms: C_12  and  C_13 
REMARK    5  A    between atoms: C_23  and  O_24 
REMARK    6  A    between atoms: C_26  and  O_27 
ROOT
HETATM    1  C   UNL     1      -0.207   9.386  27.064  0.00  0.00     0.102 A 
HETATM    2  N   UNL     1      -0.615   9.030  28.299  0.00  0.00    -0.174 NA
HETATM    3  N   UNL     1      -1.377  10.055  28.708  0.00  0.00    -0.288 N 
HETATM    4  H   UNL     1      -1.772  10.018  29.642  0.00  0.00     0.188 HD
HETATM    5  C   UNL     1      -1.540  11.025  27.770  0.00  0.00     0.124 A 
HETATM    6  C   UNL     1      -0.815  10.628  26.665  0.00  0.00     0.022 A 
ENDROOT
BRANCH   1   7
HETATM    7  C   UNL     1       0.694   8.500  26.314  0.00  0.00     0.029 A 
HETATM    8  C   UNL     1       1.783   9.034  25.610  0.00  0.00     0.026 A 
HETATM    9  C   UNL     1       2.575   8.237  24.767  0.00  0.00    -0.024 A 
HETATM   10  C   UNL     1       2.297   6.868  24.692  0.00  0.00     0.074 A 
HETATM   11  C   UNL     1       1.261   6.302  25.434  0.00  0.00     0.074 A 
HETATM   12  C   UNL     1       0.472   7.117  26.241  0.00  0.00     0.081 A 
BRANCH   9  13
HETATM   13  C   UNL     1       3.665   8.886  23.947  0.00  0.00     0.041 C 
BRANCH  13  14
HETATM   14  C   UNL     1       3.694  10.415  24.047  0.00  0.00     0.000 C 
HETATM   15  C   UNL     1       4.439  11.071  22.894  0.00  0.00     0.005 C 
ENDBRANCH  13  14
ENDBRANCH   9  13
BRANCH  10  16
HETATM   16  O   UNL     1       3.066   6.078  23.884  0.00  0.00    -0.360 OA
HETATM   17  H   UNL     1       3.043   5.169  24.227  0.00  0.00     0.217 HD
ENDBRANCH  10  16
BRANCH  12  18
HETATM   18  O   UNL     1      -0.528   6.499  26.949  0.00  0.00    -0.360 OA
HETATM   19  H   UNL     1      -1.180   6.187  26.278  0.00  0.00     0.217 HD
ENDBRANCH  12  18
ENDBRANCH   1   7
BRANCH   6  20
HETATM   20  C   UNL     1      -0.798  11.378  25.409  0.00  0.00    -0.019 A 
HETATM   21  C   UNL     1       0.329  12.118  25.020  0.00  0.00     0.015 A 
HETATM   22  C   UNL     1       0.348  12.808  23.801  0.00  0.00     0.040 A 
HETATM   23  C   UNL     1      -0.748  12.745  22.947  0.00  0.00     0.102 A 
HETATM   24  C   UNL     1      -1.884  12.032  23.333  0.00  0.00     0.102 A 
HETATM   25  O   UNL     1      -0.649  13.413  21.756  0.00  0.00    -0.346 OA
HETATM   26  C   UNL     1      -1.913  11.369  24.560  0.00  0.00     0.052 A 
HETATM   27  O   UNL     1      -3.005  11.921  22.552  0.00  0.00    -0.346 OA
HETATM   28  C   UNL     1      -3.022  12.914  21.523  0.00  0.00     0.202 C 
HETATM   29  C   UNL     1      -1.670  13.007  20.836  0.00  0.00     0.202 C 
ENDBRANCH   6  20
TORSDOF 6
ENDMDL
MODEL 3
REMARK VINA RESULT:    -7.595      3.176      4.745
REMARK INTER + INTRA:         -11.116
REMARK INTER:                  -9.923
REMARK INTRA:                  -1.194
REMARK UNBOUND:                -1.301
REMARK  6 active torsions:
REMARK  status: ('A' for Active; 'I' for Inactive)
REMARK    1  A    between atoms: C_2  and  C_3 
REMARK    2  A    between atoms: C_3  and  C_4 
REMARK    3  A    between atoms: C_6  and  C_7 
REMARK    4  A    between atoms: C_12  and  C_13 
REMARK    5  A    between atoms: C_23  and  O_24 
REMARK    6  A    between atoms: C_26  and  O_27 
ROOT
HETATM    1  C   UNL     1       3.767   6.557  23.442  0.00  0.00     0.102 A 
HETATM    2  N   UNL     1       3.777   5.254  23.791  0.00  0.00    -0.174 NA
HETATM    3  N   UNL     1       3.178   5.224  24.990  0.00  0.00    -0.288 N 
HETATM    4  H   UNL     1       3.101   4.331  25.467  0.00  0.00     0.188 HD
HETATM    5  C   UNL     1       2.717   6.434  25.403  0.00  0.00     0.124 A 
HETATM    6  C   UNL     1       3.055   7.339  24.417  0.00  0.00     0.022 A 
ENDROOT
BRANCH   1   7
HETATM    7  C   UNL     1       4.388   6.975  22.178  0.00  0.00     0.029 A 
HETATM    8  C   UNL     1       3.628   7.642  21.207  0.00  0.00     0.026 A 
HETATM    9  C   UNL     1       4.150   7.925  19.933  0.00  0.00    -0.024 A 
HETATM   10  C   UNL     1       5.481   7.586  19.669  0.00  0.00     0.074 A 
HETATM   11  C   UNL     1       6.276   6.981  20.641  0.00  0.00     0.074 A 
HETATM   12  C   UNL     1       5.729   6.686  21.887  0.00  0.00     0.081 A 
BRANCH   9  13
HETATM   13  C   UNL     1       3.251   8.546  18.889  0.00  0.00     0.041 C 
BRANCH  13  14
HETATM   14  C   UNL     1       2.152   7.610  18.376  0.00  0.00     0.000 C 
HETATM   15  C   UNL     1       1.754   7.895  16.935  0.00  0.00     0.005 C 
ENDBRANCH  13  14
ENDBRANCH   9  13
BRANCH  10  16
HETATM   16  O   UNL     1       6.005   7.864  18.438  0.00  0.00    -0.360 OA
HETATM   17  H   UNL     1       6.921   7.542  18.411  0.00  0.00     0.217 HD
ENDBRANCH  10  16
BRANCH  12  18
HETATM   18  O   UNL     1       6.565   6.095  22.801  0.00  0.00    -0.360 OA
HETATM   19  H   UNL     1       6.095   5.286  23.112  0.00  0.00     0.217 HD
ENDBRANCH  12  18
ENDBRANCH   1   7
BRANCH   6  20
HETATM   20  C   UNL     1       2.664   8.748  24.460  0.00  0.00    -0.019 A 
HETATM   21  C   UNL     1       3.565   9.763  24.100  0.00  0.00     0.015 A 
HETATM   22  C   UNL     1       3.173  11.107  24.113  0.00  0.00     0.040 A 
HETATM   23  C   UNL     1       1.870  11.450  24.462  0.00  0.00     0.102 A 
HETATM   24  C   UNL     1       0.972  10.454  24.845  0.00  0.00     0.102 A 
HETATM   25  O   UNL     1       1.544  12.780  24.419  0.00  0.00    -0.346 OA
HETATM   26  C   UNL     1       1.372   9.117  24.859  0.00  0.00     0.052 A 
HETATM   27  O   UNL     1      -0.326  10.707  25.203  0.00  0.00    -0.346 OA
HETATM   28  C   UNL     1      -0.520  12.089  25.514  0.00  0.00     0.202 C 
HETATM   29  C   UNL     1       0.126  12.978  24.463  0.00  0.00     0.202 C 
ENDBRANCH   6  20
TORSDOF 6
ENDMDL
MODEL 4
REMARK VINA RESULT:    -7.430      0.951      1.493
REMARK INTER + INTRA:         -10.903
REMARK INTER:                  -9.464
REMARK INTRA:                  -1.439
REMARK UNBOUND:                -1.301
REMARK  6 active torsions:
REMARK  status: ('A' for Active; 'I' for Inactive)
REMARK    1  A    between atoms: C_2  and  C_3 
REMARK    2  A    between atoms: C_3  and  C_4 
REMARK    3  A    between atoms: C_6  and  C_7 
REMARK    4  A    between atoms: C_12  and  C_13 
REMARK    5  A    between atoms: C_23  and  O_24 
REMARK    6  A    between atoms: C_26  and  O_27 
ROOT
HETATM    1  C   UNL     1       4.691   7.537  19.451  0.00  0.00     0.102 A 
HETATM    2  N   UNL     1       5.588   7.715  18.460  0.00  0.00    -0.174 NA
HETATM    3  N   UNL     1       6.702   8.121  19.086  0.00  0.00    -0.288 N 
HETATM    4  H   UNL     1       7.515   8.350  18.522  0.00  0.00     0.188 HD
HETATM    5  C   UNL     1       6.591   8.147  20.441  0.00  0.00     0.124 A 
HETATM    6  C   UNL     1       5.303   7.751  20.736  0.00  0.00     0.022 A 
ENDROOT
BRANCH   1   7
HETATM    7  C   UNL     1       3.320   7.122  19.124  0.00  0.00     0.029 A 
HETATM    8  C   UNL     1       2.843   5.871  19.542  0.00  0.00     0.026 A 
HETATM    9  C   UNL     1       1.593   5.384  19.123  0.00  0.00    -0.024 A 
HETATM   10  C   UNL     1       0.791   6.208  18.327  0.00  0.00     0.074 A 
HETATM   11  C   UNL     1       1.216   7.483  17.953  0.00  0.00     0.074 A 
HETATM   12  C   UNL     1       2.470   7.932  18.357  0.00  0.00     0.081 A 
BRANCH   9  13
HETATM   13  C   UNL     1       1.179   3.985  19.512  0.00  0.00     0.041 C 
BRANCH  13  14
HETATM   14  C   UNL     1       2.083   2.886  18.945  0.00  0.00     0.000 C 
HETATM   15  C   UNL     1       2.120   2.875  17.424  0.00  0.00     0.005 C 
ENDBRANCH  13  14
ENDBRANCH   9  13
BRANCH  10  16
HETATM   16  O   UNL     1      -0.431   5.752  17.920  0.00  0.00    -0.360 OA
HETATM   17  H   UNL     1      -0.654   6.176  17.075  0.00  0.00     0.217 HD
ENDBRANCH  10  16
BRANCH  12  18
HETATM   18  O   UNL     1       2.827   9.197  17.961  0.00  0.00    -0.360 OA
HETATM   19  H   UNL     1       2.660   9.233  16.990  0.00  0.00     0.217 HD
ENDBRANCH  12  18
ENDBRANCH   1   7
BRANCH   6  20
HETATM   20  C   UNL     1       4.815   7.579  22.104  0.00  0.00    -0.019 A 
HETATM   21  C   UNL     1       5.453   6.706  22.999  0.00  0.00     0.015 A 
HETATM   22  C   UNL     1       4.999   6.571  24.317  0.00  0.00     0.040 A 
HETATM   23  C   UNL     1       3.917   7.325  24.762  0.00  0.00     0.102 A 
HETATM   24  C   UNL     1       3.259   8.178  23.876  0.00  0.00     0.102 A 
HETATM   25  O   UNL     1       3.548   7.170  26.072  0.00  0.00    -0.346 OA
HETATM   26  C   UNL     1       3.695   8.291  22.556  0.00  0.00     0.052 A 
HETATM   27  O   UNL     1       2.186   8.953  24.233  0.00  0.00    -0.346 OA
HETATM   28  C   UNL     1       1.600   8.498  25.455  0.00  0.00     0.202 C 
HETATM   29  C   UNL     1       2.668   8.218  26.499  0.00  0.00     0.202 C 
ENDBRANCH   6  20
TORSDOF 6
ENDMDL
MODEL 5
REMARK VINA RESULT:    -7.280      1.634      6.364
REMARK INTER + INTRA:         -10.709
REMARK INTER:                  -9.408
REMARK INTRA:                  -1.301
REMARK UNBOUND:                -1.301
REMARK  6 active torsions:
REMARK  status: ('A' for Active; 'I' for Inactive)
REMARK    1  A    between atoms: C_2  and  C_3 
REMARK    2  A    between atoms: C_3  and  C_4 
REMARK    3  A    between atoms: C_6  and  C_7 
REMARK    4  A    between atoms: C_12  and  C_13 
REMARK    5  A    between atoms: C_23  and  O_24 
REMARK    6  A    between atoms: C_26  and  O_27 
ROOT
HETATM    1  C   UNL     1       5.592   7.916  20.803  0.00  0.00     0.102 A 
HETATM    2  N   UNL     1       6.851   8.377  20.655  0.00  0.00    -0.174 NA
HETATM    3  N   UNL     1       7.050   8.389  19.330  0.00  0.00    -0.288 N 
HETATM    4  H   UNL     1       7.959   8.676  18.982  0.00  0.00     0.188 HD
HETATM    5  C   UNL     1       5.956   8.027  18.608  0.00  0.00     0.124 A 
HETATM    6  C   UNL     1       4.965   7.729  19.521  0.00  0.00     0.022 A 
ENDROOT
BRANCH   1   7
HETATM    7  C   UNL     1       5.039   7.732  22.152  0.00  0.00     0.029 A 
HETATM    8  C   UNL     1       4.068   8.617  22.642  0.00  0.00     0.026 A 
HETATM    9  C   UNL     1       3.626   8.557  23.975  0.00  0.00    -0.024 A 
HETATM   10  C   UNL     1       4.129   7.544  24.798  0.00  0.00     0.074 A 
HETATM   11  C   UNL     1       5.047   6.613  24.313  0.00  0.00     0.074 A 
HETATM   12  C   UNL     1       5.489   6.708  22.997  0.00  0.00     0.081 A 
BRANCH   9  13
HETATM   13  C   UNL     1       2.661   9.605  24.480  0.00  0.00     0.041 C 
BRANCH  13  14
HETATM   14  C   UNL     1       3.085  11.044  24.170  0.00  0.00     0.000 C 
HETATM   15  C   UNL     1       1.938  12.038  24.284  0.00  0.00     0.005 C 
ENDBRANCH  13  14
ENDBRANCH   9  13
BRANCH  10  16
HETATM   16  O   UNL     1       3.701   7.468  26.093  0.00  0.00    -0.360 OA
HETATM   17  H   UNL     1       3.548   6.534  26.314  0.00  0.00     0.217 HD
ENDBRANCH  10  16
BRANCH  12  18
HETATM   18  O   UNL     1       6.388   5.759  22.580  0.00  0.00    -0.360 OA
HETATM   19  H   UNL     1       5.859   5.077  22.103  0.00  0.00     0.217 HD
ENDBRANCH  12  18
ENDBRANCH   1   7
BRANCH   6  20
HETATM   20  C   UNL     1       3.602   7.366  19.130  0.00  0.00    -0.019 A 
HETATM   21  C   UNL     1       2.819   8.225  18.344  0.00  0.00     0.015 A 
HETATM   22  C   UNL     1       1.527   7.856  17.948  0.00  0.00     0.040 A 
HETATM   23  C   UNL     1       1.015   6.615  18.313  0.00  0.00     0.102 A 
HETATM   24  C   UNL     1       1.774   5.762  19.114  0.00  0.00     0.102 A 
HETATM   25  O   UNL     1      -0.241   6.303  17.862  0.00  0.00    -0.346 OA
HETATM   26  C   UNL     1       3.049   6.142  19.531  0.00  0.00     0.052 A 
HETATM   27  O   UNL     1       1.343   4.525  19.517  0.00  0.00    -0.346 OA
HETATM   28  C   UNL     1      -0.072   4.391  19.362  0.00  0.00     0.202 C 
HETATM   29  C   UNL     1      -0.521   4.905  18.004  0.00  0.00     0.202 C 
ENDBRANCH   6  20
TORSDOF 6
ENDMDL
MODEL 6
REMARK VINA RESULT:    -7.272      2.530      6.768
REMARK INTER + INTRA:         -10.699
REMARK INTER:                  -9.269
REMARK INTRA:                  -1.430
REMARK UNBOUND:                -1.301
REMARK  6 active torsions:
REMARK  status: ('A' for Active; 'I' for Inactive)
REMARK    1  A    between atoms: C_2  and  C_3 
REMARK    2  A    between atoms: C_3  and  C_4 
REMARK    3  A    between atoms: C_6  and  C_7 
REMARK    4  A    between atoms: C_12  and  C_13 
REMARK    5  A    between atoms: C_23  and  O_24 
REMARK    6  A    between atoms: C_26  and  O_27 
ROOT
HETATM    1  C   UNL     1       2.851   7.916  18.764  0.00  0.00     0.102 A 
HETATM    2  N   UNL     1       2.740   9.247  18.584  0.00  0.00    -0.174 NA
HETATM    3  N   UNL     1       1.816   9.380  17.622  0.00  0.00    -0.288 N 
HETATM    4  H   UNL     1       1.591  10.315  17.297  0.00  0.00     0.188 HD
HETATM    5  C   UNL     1       1.272   8.201  17.220  0.00  0.00     0.124 A 
HETATM    6  C   UNL     1       1.895   7.211  17.951  0.00  0.00     0.022 A 
ENDROOT
BRANCH   1   7
HETATM    7  C   UNL     1       3.820   7.392  19.737  0.00  0.00     0.029 A 
HETATM    8  C   UNL     1       3.378   6.659  20.848  0.00  0.00     0.026 A 
HETATM    9  C   UNL     1       4.261   6.271  21.870  0.00  0.00    -0.024 A 
HETATM   10  C   UNL     1       5.619   6.573  21.726  0.00  0.00     0.074 A 
HETATM   11  C   UNL     1       6.092   7.243  20.599  0.00  0.00     0.074 A 
HETATM   12  C   UNL     1       5.194   7.642  19.612  0.00  0.00     0.081 A 
BRANCH   9  13
HETATM   13  C   UNL     1       3.711   5.581  23.096  0.00  0.00     0.041 C 
BRANCH  13  14
HETATM   14  C   UNL     1       2.734   6.436  23.908  0.00  0.00     0.000 C 
HETATM   15  C   UNL     1       3.355   7.730  24.412  0.00  0.00     0.005 C 
ENDBRANCH  13  14
ENDBRANCH   9  13
BRANCH  10  16
HETATM   16  O   UNL     1       6.491   6.193  22.707  0.00  0.00    -0.360 OA
HETATM   17  H   UNL     1       6.697   6.968  23.255  0.00  0.00     0.217 HD
ENDBRANCH  10  16
BRANCH  12  18
HETATM   18  O   UNL     1       5.723   8.293  18.526  0.00  0.00    -0.360 OA
HETATM   19  H   UNL     1       4.963   8.735  18.080  0.00  0.00     0.217 HD
ENDBRANCH  12  18
ENDBRANCH   1   7
BRANCH   6  20
HETATM   20  C   UNL     1       1.529   5.798  17.857  0.00  0.00    -0.019 A 
HETATM   21  C   UNL     1       2.490   4.816  17.569  0.00  0.00     0.015 A 
HETATM   22  C   UNL     1       2.137   3.462  17.512  0.00  0.00     0.040 A 
HETATM   23  C   UNL     1       0.825   3.073  17.765  0.00  0.00     0.102 A 
HETATM   24  C   UNL     1      -0.144   4.041  18.029  0.00  0.00     0.102 A 
HETATM   25  O   UNL     1       0.557   1.730  17.728  0.00  0.00    -0.346 OA
HETATM   26  C   UNL     1       0.202   5.391  18.058  0.00  0.00     0.052 A 
HETATM   27  O   UNL     1      -1.457   3.741  18.288  0.00  0.00    -0.346 OA
HETATM   28  C   UNL     1      -1.779   2.411  17.873  0.00  0.00     0.202 C 
HETATM   29  C   UNL     1      -0.711   1.428  18.325  0.00  0.00     0.202 C 
ENDBRANCH   6  20
TORSDOF 6
ENDMDL
MODEL 7
REMARK VINA RESULT:    -7.260      2.196      3.108
REMARK INTER + INTRA:         -10.683
REMARK INTER:                  -9.230
REMARK INTRA:                  -1.453
REMARK UNBOUND:                -1.301
REMARK  6 active torsions:
REMARK  status: ('A' for Active; 'I' for Inactive)
REMARK    1  A    between atoms: C_2  and  C_3 
REMARK    2  A    between atoms: C_3  and  C_4 
REMARK    3  A    between atoms: C_6  and  C_7 
REMARK    4  A    between atoms: C_12  and  C_13 
REMARK    5  A    between atoms: C_23  and  O_24 
REMARK    6  A    between atoms: C_26  and  O_27 
ROOT
HETATM    1  C   UNL     1       4.956   7.391  19.181  0.00  0.00     0.102 A 
HETATM    2  N   UNL     1       5.915   8.100  18.553  0.00  0.00    -0.174 NA
HETATM    3  N   UNL     1       6.937   8.123  19.421  0.00  0.00    -0.288 N 
HETATM    4  H   UNL     1       7.773   8.639  19.166  0.00  0.00     0.188 HD
HETATM    5  C   UNL     1       6.712   7.402  20.552  0.00  0.00     0.124 A 
HETATM    6  C   UNL     1       5.439   6.882  20.438  0.00  0.00     0.022 A 
ENDROOT
BRANCH   1   7
HETATM    7  C   UNL     1       3.655   7.192  18.529  0.00  0.00     0.029 A 
HETATM    8  C   UNL     1       3.313   5.937  18.005  0.00  0.00     0.026 A 
HETATM    9  C   UNL     1       2.143   5.751  17.248  0.00  0.00    -0.024 A 
HETATM   10  C   UNL     1       1.278   6.838  17.082  0.00  0.00     0.074 A 
HETATM   11  C   UNL     1       1.565   8.079  17.649  0.00  0.00     0.074 A 
HETATM   12  C   UNL     1       2.743   8.246  18.371  0.00  0.00     0.081 A 
BRANCH   9  13
HETATM   13  C   UNL     1       1.881   4.405  16.614  0.00  0.00     0.041 C 
BRANCH  13  14
HETATM   14  C   UNL     1       2.089   3.219  17.561  0.00  0.00     0.000 C 
HETATM   15  C   UNL     1       1.009   3.115  18.628  0.00  0.00     0.005 C 
ENDBRANCH  13  14
ENDBRANCH   9  13
BRANCH  10  16
HETATM   16  O   UNL     1       0.132   6.669  16.357  0.00  0.00    -0.360 OA
HETATM   17  H   UNL     1      -0.516   7.333  16.644  0.00  0.00     0.217 HD
ENDBRANCH  10  16
BRANCH  12  18
HETATM   18  O   UNL     1       2.964   9.490  18.908  0.00  0.00    -0.360 OA
HETATM   19  H   UNL     1       2.082   9.817  19.204  0.00  0.00     0.217 HD
ENDBRANCH  12  18
ENDBRANCH   1   7
BRANCH   6  20
HETATM   20  C   UNL     1       4.853   5.981  21.430  0.00  0.00    -0.019 A 
HETATM   21  C   UNL     1       4.830   4.592  21.226  0.00  0.00     0.015 A 
HETATM   22  C   UNL     1       4.296   3.734  22.196  0.00  0.00     0.040 A 
HETATM   23  C   UNL     1       3.803   4.252  23.389  0.00  0.00     0.102 A 
HETATM   24  C   UNL     1       3.799   5.632  23.594  0.00  0.00     0.102 A 
HETATM   25  O   UNL     1       3.328   3.354  24.308  0.00  0.00    -0.346 OA
HETATM   26  C   UNL     1       4.305   6.488  22.616  0.00  0.00     0.052 A 
HETATM   27  O   UNL     1       3.331   6.222  24.740  0.00  0.00    -0.346 OA
HETATM   28  C   UNL     1       2.514   5.322  25.492  0.00  0.00     0.202 C 
HETATM   29  C   UNL     1       3.168   3.954  25.600  0.00  0.00     0.202 C 
ENDBRANCH   6  20
TORSDOF 6
ENDMDL
MODEL 8
REMARK VINA RESULT:    -7.193      3.134      7.008
REMARK INTER + INTRA:         -10.596
REMARK INTER:                  -9.464
REMARK INTRA:                  -1.132
REMARK UNBOUND:                -1.301
REMARK  6 active torsions:
REMARK  status: ('A' for Active; 'I' for Inactive)
REMARK    1  A    between atoms: C_2  and  C_3 
REMARK    2  A    between atoms: C_3  and  C_4 
REMARK    3  A    between atoms: C_6  and  C_7 
REMARK    4  A    between atoms: C_12  and  C_13 
REMARK    5  A    between atoms: C_23  and  O_24 
REMARK    6  A    between atoms: C_26  and  O_27 
ROOT
HETATM    1  C   UNL     1       3.089   7.846  25.068  0.00  0.00     0.102 A 
HETATM    2  N   UNL     1       3.639   7.609  26.277  0.00  0.00    -0.174 NA
HETATM    3  N   UNL     1       4.809   7.016  26.002  0.00  0.00    -0.288 N 
HETATM    4  H   UNL     1       5.390   6.713  26.777  0.00  0.00     0.188 HD
HETATM    5  C   UNL     1       5.077   6.922  24.672  0.00  0.00     0.124 A 
HETATM    6  C   UNL     1       3.995   7.472  24.015  0.00  0.00     0.022 A 
ENDROOT
BRANCH   1   7
HETATM    7  C   UNL     1       1.759   8.465  24.984  0.00  0.00     0.029 A 
HETATM    8  C   UNL     1       1.629   9.861  24.988  0.00  0.00     0.026 A 
HETATM    9  C   UNL     1       0.370  10.481  25.056  0.00  0.00    -0.024 A 
HETATM   10  C   UNL     1      -0.771   9.672  25.051  0.00  0.00     0.074 A 
HETATM   11  C   UNL     1      -0.669   8.284  24.982  0.00  0.00     0.074 A 
HETATM   12  C   UNL     1       0.590   7.691  24.943  0.00  0.00     0.081 A 
BRANCH   9  13
HETATM   13  C   UNL     1       0.295  11.986  25.171  0.00  0.00     0.041 C 
BRANCH  13  14
HETATM   14  C   UNL     1       0.148  12.707  23.827  0.00  0.00     0.000 C 
HETATM   15  C   UNL     1       0.367  14.209  23.933  0.00  0.00     0.005 C 
ENDBRANCH  13  14
ENDBRANCH   9  13
BRANCH  10  16
HETATM   16  O   UNL     1      -2.003  10.262  25.107  0.00  0.00    -0.360 OA
HETATM   17  H   UNL     1      -1.949  11.132  24.680  0.00  0.00     0.217 HD
ENDBRANCH  10  16
BRANCH  12  18
HETATM   18  O   UNL     1       0.623   6.321  24.869  0.00  0.00    -0.360 OA
HETATM   19  H   UNL     1       1.139   6.106  24.057  0.00  0.00     0.217 HD
ENDBRANCH  12  18
ENDBRANCH   1   7
BRANCH   6  20
HETATM   20  C   UNL     1       3.937   7.624  22.561  0.00  0.00    -0.019 A 
HETATM   21  C   UNL     1       4.433   8.776  21.931  0.00  0.00     0.015 A 
HETATM   22  C   UNL     1       4.403   8.900  20.536  0.00  0.00     0.040 A 
HETATM   23  C   UNL     1       3.900   7.864  19.755  0.00  0.00     0.102 A 
HETATM   24  C   UNL     1       3.382   6.723  20.370  0.00  0.00     0.102 A 
HETATM   25  O   UNL     1       3.933   8.036  18.397  0.00  0.00    -0.346 OA
HETATM   26  C   UNL     1       3.387   6.613  21.761  0.00  0.00     0.052 A 
HETATM   27  O   UNL     1       2.868   5.660  19.675  0.00  0.00    -0.346 OA
HETATM   28  C   UNL     1       2.569   6.018  18.323  0.00  0.00     0.202 C 
HETATM   29  C   UNL     1       3.714   6.802  17.702  0.00  0.00     0.202 C 
ENDBRANCH   6  20
TORSDOF 6
ENDMDL
MODEL 9
REMARK VINA RESULT:    -6.994      3.510      5.654
REMARK INTER + INTRA:         -10.340
REMARK INTER:                  -9.017
REMARK INTRA:                  -1.323
REMARK UNBOUND:                -1.301
REMARK  6 active torsions:
REMARK  status: ('A' for Active; 'I' for Inactive)
REMARK    1  A    between atoms: C_2  and  C_3 
REMARK    2  A    between atoms: C_3  and  C_4 
REMARK    3  A    between atoms: C_6  and  C_7 
REMARK    4  A    between atoms: C_12  and  C_13 
REMARK    5  A    between atoms: C_23  and  O_24 
REMARK    6  A    between atoms: C_26  and  O_27 
ROOT
HETATM    1  C   UNL     1       3.364   7.494  25.347  0.00  0.00     0.102 A 
HETATM    2  N   UNL     1       3.933   6.742  26.311  0.00  0.00    -0.174 NA
HETATM    3  N   UNL     1       3.683   7.407  27.447  0.00  0.00    -0.288 N 
HETATM    4  H   UNL     1       4.053   7.034  28.316  0.00  0.00     0.188 HD
HETATM    5  C   UNL     1       2.918   8.518  27.274  0.00  0.00     0.124 A 
HETATM    6  C   UNL     1       2.660   8.610  25.922  0.00  0.00     0.022 A 
ENDROOT
BRANCH   1   7
HETATM    7  C   UNL     1       3.477   7.080  23.942  0.00  0.00     0.029 A 
HETATM    8  C   UNL     1       4.234   7.842  23.041  0.00  0.00     0.026 A 
HETATM    9  C   UNL     1       4.243   7.558  21.665  0.00  0.00    -0.024 A 
HETATM   10  C   UNL     1       3.529   6.444  21.211  0.00  0.00     0.074 A 
HETATM   11  C   UNL     1       2.821   5.633  22.097  0.00  0.00     0.074 A 
HETATM   12  C   UNL     1       2.805   5.950  23.452  0.00  0.00     0.081 A 
BRANCH   9  13
HETATM   13  C   UNL     1       4.987   8.479  20.726  0.00  0.00     0.041 C 
BRANCH  13  14
HETATM   14  C   UNL     1       6.399   8.003  20.374  0.00  0.00     0.000 C 
HETATM   15  C   UNL     1       7.045   8.826  19.269  0.00  0.00     0.005 C 
ENDBRANCH  13  14
ENDBRANCH   9  13
BRANCH  10  16
HETATM   16  O   UNL     1       3.536   6.149  19.877  0.00  0.00    -0.360 OA
HETATM   17  H   UNL     1       4.439   6.269  19.539  0.00  0.00     0.217 HD
ENDBRANCH  10  16
BRANCH  12  18
HETATM   18  O   UNL     1       2.095   5.110  24.273  0.00  0.00    -0.360 OA
HETATM   19  H   UNL     1       2.754   4.480  24.648  0.00  0.00     0.217 HD
ENDBRANCH  12  18
ENDBRANCH   1   7
BRANCH   6  20
HETATM   20  C   UNL     1       1.800   9.641  25.341  0.00  0.00    -0.019 A 
HETATM   21  C   UNL     1       2.339  10.827  24.819  0.00  0.00     0.015 A 
HETATM   22  C   UNL     1       1.511  11.795  24.237  0.00  0.00     0.040 A 
HETATM   23  C   UNL     1       0.140  11.576  24.147  0.00  0.00     0.102 A 
HETATM   24  C   UNL     1      -0.411  10.412  24.684  0.00  0.00     0.102 A 
HETATM   25  O   UNL     1      -0.607  12.548  23.533  0.00  0.00    -0.346 OA
HETATM   26  C   UNL     1       0.411   9.462  25.289  0.00  0.00     0.052 A 
HETATM   27  O   UNL     1      -1.750  10.122  24.638  0.00  0.00    -0.346 OA
HETATM   28  C   UNL     1      -2.526  11.288  24.350  0.00  0.00     0.202 C 
HETATM   29  C   UNL     1      -1.918  12.075  23.201  0.00  0.00     0.202 C 
ENDBRANCH   6  20
TORSDOF 6
ENDMDL
