MODEL 1
REMARK VINA RESULT:    -9.141      0.000      0.000
REMARK INTER + INTRA:         -12.353
REMARK INTER:                 -11.153
REMARK INTRA:                  -1.200
REMARK UNBOUND:                -0.808
REMARK  5 active torsions:
REMARK  status: ('A' for Active; 'I' for Inactive)
REMARK    1  A    between atoms: C_7  and  N_8 
REMARK       I    between atoms: N_8  and  C_10 
REMARK    2  A    between atoms: C_10  and  C_12 
REMARK    3  A    between atoms: C_14  and  O_15 
REMARK    4  A    between atoms: C_22  and  C_23 
REMARK    5  A    between atoms: C_23  and  C_24 
ROOT
HETATM    1  C   UNL     1       7.187  12.066  21.384  0.00  0.00     0.066 C 
HETATM    2  C   UNL     1       6.384  13.048  21.999  0.00  0.00     0.035 C 
HETATM    3  C   UNL     1       8.390  11.705  22.023  0.00  0.00     0.083 C 
HETATM    4  C   UNL     1       8.849  12.358  23.177  0.00  0.00     0.069 C 
HETATM    5  C   UNL     1       8.098  13.448  23.629  0.00  0.00     0.065 A 
HETATM    6  C   UNL     1       6.899  13.838  23.052  0.00  0.00     0.020 A 
HETATM    7  N   UNL     1       8.303  14.318  24.661  0.00  0.00    -0.277 N 
HETATM    8  H   UNL     1       9.054  14.307  25.339  0.00  0.00     0.189 HD
HETATM    9  N   UNL     1       7.398  15.317  24.725  0.00  0.00    -0.178 NA
HETATM   10  C   UNL     1       6.540  15.059  23.721  0.00  0.00     0.071 A 
ENDROOT
BRANCH   1  11
HETATM   11  C   UNL     1       6.814  11.371  20.084  0.00  0.00     0.260 C 
HETATM   12  N   UNL     1       5.700  10.463  20.016  0.00  0.00    -0.318 N 
HETATM   13  C   UNL     1       4.840  10.221  21.165  0.00  0.00     0.159 C 
HETATM   14  O   UNL     1       7.513  11.699  19.116  0.00  0.00    -0.267 OA
BRANCH  12  15
HETATM   15  C   UNL     1       5.383   9.697  18.806  0.00  0.00     0.037 A 
HETATM   16  C   UNL     1       4.554  10.261  17.805  0.00  0.00     0.033 A 
HETATM   17  C   UNL     1       4.203   9.574  16.636  0.00  0.00     0.044 A 
HETATM   18  C   UNL     1       4.666   8.287  16.445  0.00  0.00     0.116 A 
HETATM   19  F   UNL     1       4.319   7.609  15.345  0.00  0.00    -0.206 F 
HETATM   20  C   UNL     1       5.496   7.700  17.387  0.00  0.00     0.044 A 
HETATM   21  C   UNL     1       5.855   8.400  18.551  0.00  0.00     0.033 A 
ENDBRANCH  12  15
ENDBRANCH   1  11
BRANCH   3  22
HETATM   22  O   UNL     1       9.208  10.692  21.581  0.00  0.00    -0.360 OA
HETATM   23  H   UNL     1       8.793   9.837  21.842  0.00  0.00     0.217 HD
ENDBRANCH   3  22
BRANCH  10  24
HETATM   24  C   UNL     1       5.422  16.039  23.454  0.00  0.00     0.100 C 
BRANCH  24  25
HETATM   25  C   UNL     1       4.058  15.472  23.842  0.00  0.00    -0.052 A 
HETATM   26  C   UNL     1       3.629  15.341  25.174  0.00  0.00     0.007 A 
HETATM   27  C   UNL     1       2.362  14.840  25.482  0.00  0.00     0.001 A 
HETATM   28  C   UNL     1       1.527  14.367  24.474  0.00  0.00     0.007 A 
HETATM   29  C   UNL     1       1.969  14.348  23.150  0.00  0.00    -0.061 A 
HETATM   30  C   UNL     1       3.211  14.940  22.838  0.00  0.00     0.014 A 
HETATM   31  C   UNL     1       1.110  13.691  22.107  0.00  0.00     0.048 C 
ENDBRANCH  24  25
ENDBRANCH  10  24
TORSDOF 5
ENDMDL
MODEL 2
REMARK VINA RESULT:    -9.055      2.380      3.704
REMARK INTER + INTRA:         -12.245
REMARK INTER:                 -11.074
REMARK INTRA:                  -1.171
REMARK UNBOUND:                -0.808
REMARK  5 active torsions:
REMARK  status: ('A' for Active; 'I' for Inactive)
REMARK    1  A    between atoms: C_7  and  N_8 
REMARK       I    between atoms: N_8  and  C_10 
REMARK    2  A    between atoms: C_10  and  C_12 
REMARK    3  A    between atoms: C_14  and  O_15 
REMARK    4  A    between atoms: C_22  and  C_23 
REMARK    5  A    between atoms: C_23  and  C_24 
ROOT
HETATM    1  C   UNL     1       8.504  10.930  23.109  0.00  0.00     0.066 C 
HETATM    2  C   UNL     1       8.402  11.962  24.063  0.00  0.00     0.035 C 
HETATM    3  C   UNL     1       9.681  10.153  23.103  0.00  0.00     0.083 C 
HETATM    4  C   UNL     1      10.772  10.443  23.936  0.00  0.00     0.069 C 
HETATM    5  C   UNL     1      10.678  11.593  24.726  0.00  0.00     0.065 A 
HETATM    6  C   UNL     1       9.541  12.384  24.787  0.00  0.00     0.020 A 
HETATM    7  N   UNL     1      11.571  12.177  25.579  0.00  0.00    -0.277 N 
HETATM    8  H   UNL     1      12.493  11.845  25.831  0.00  0.00     0.189 HD
HETATM    9  N   UNL     1      11.152  13.351  26.093  0.00  0.00    -0.178 NA
HETATM   10  C   UNL     1       9.914  13.516  25.593  0.00  0.00     0.071 A 
ENDROOT
BRANCH   1  11
HETATM   11  C   UNL     1       7.411  10.604  22.105  0.00  0.00     0.260 C 
HETATM   12  N   UNL     1       7.338  11.278  20.836  0.00  0.00    -0.318 N 
HETATM   13  C   UNL     1       8.343  12.248  20.426  0.00  0.00     0.159 C 
HETATM   14  O   UNL     1       6.650   9.694  22.461  0.00  0.00    -0.267 OA
BRANCH  12  15
HETATM   15  C   UNL     1       6.235  11.062  19.893  0.00  0.00     0.037 A 
HETATM   16  C   UNL     1       6.292   9.993  18.966  0.00  0.00     0.033 A 
HETATM   17  C   UNL     1       5.277   9.746  18.032  0.00  0.00     0.044 A 
HETATM   18  C   UNL     1       4.178  10.581  17.992  0.00  0.00     0.116 A 
HETATM   19  F   UNL     1       3.213  10.371  17.089  0.00  0.00    -0.206 F 
HETATM   20  C   UNL     1       4.069  11.628  18.893  0.00  0.00     0.044 A 
HETATM   21  C   UNL     1       5.083  11.862  19.836  0.00  0.00     0.033 A 
ENDBRANCH  12  15
ENDBRANCH   1  11
BRANCH   3  22
HETATM   22  O   UNL     1       9.860   9.057  22.294  0.00  0.00    -0.360 OA
HETATM   23  H   UNL     1      10.773   9.104  21.925  0.00  0.00     0.217 HD
ENDBRANCH   3  22
BRANCH  10  24
HETATM   24  C   UNL     1       9.165  14.788  25.912  0.00  0.00     0.100 C 
BRANCH  24  25
HETATM   25  C   UNL     1       8.101  15.107  24.863  0.00  0.00    -0.052 A 
HETATM   26  C   UNL     1       8.401  15.359  23.514  0.00  0.00     0.007 A 
HETATM   27  C   UNL     1       7.393  15.623  22.585  0.00  0.00     0.001 A 
HETATM   28  C   UNL     1       6.068  15.737  22.994  0.00  0.00     0.007 A 
HETATM   29  C   UNL     1       5.743  15.633  24.348  0.00  0.00    -0.061 A 
HETATM   30  C   UNL     1       6.754  15.276  25.266  0.00  0.00     0.014 A 
HETATM   31  C   UNL     1       4.331  15.913  24.779  0.00  0.00     0.048 C 
ENDBRANCH  24  25
ENDBRANCH  10  24
TORSDOF 5
ENDMDL
MODEL 3
REMARK VINA RESULT:    -8.589      3.920      5.201
REMARK INTER + INTRA:         -11.657
REMARK INTER:                 -10.583
REMARK INTRA:                  -1.074
REMARK UNBOUND:                -0.808
REMARK  5 active torsions:
REMARK  status: ('A' for Active; 'I' for Inactive)
REMARK    1  A    between atoms: C_7  and  N_8 
REMARK       I    between atoms: N_8  and  C_10 
REMARK    2  A    between atoms: C_10  and  C_12 
REMARK    3  A    between atoms: C_14  and  O_15 
REMARK    4  A    between atoms: C_22  and  C_23 
REMARK    5  A    between atoms: C_23  and  C_24 
ROOT
HETATM    1  C   UNL     1       9.984  10.525  23.234  0.00  0.00     0.066 C 
HETATM    2  C   UNL     1       9.797  11.798  23.809  0.00  0.00     0.035 C 
HETATM    3  C   UNL     1      10.944  10.400  22.210  0.00  0.00     0.083 C 
HETATM    4  C   UNL     1      11.630  11.508  21.688  0.00  0.00     0.069 C 
HETATM    5  C   UNL     1      11.262  12.766  22.174  0.00  0.00     0.065 A 
HETATM    6  C   UNL     1      10.339  12.949  23.192  0.00  0.00     0.020 A 
HETATM    7  N   UNL     1      11.681  14.022  21.836  0.00  0.00    -0.277 N 
HETATM    8  H   UNL     1      12.394  14.274  21.164  0.00  0.00     0.189 HD
HETATM    9  N   UNL     1      11.014  15.011  22.464  0.00  0.00    -0.178 NA
HETATM   10  C   UNL     1      10.158  14.373  23.283  0.00  0.00     0.071 A 
ENDROOT
BRANCH   1  11
HETATM   11  C   UNL     1       9.218   9.287  23.671  0.00  0.00     0.260 C 
HETATM   12  N   UNL     1       7.865   9.054  23.241  0.00  0.00    -0.318 N 
HETATM   13  C   UNL     1       7.192   9.955  22.317  0.00  0.00     0.159 C 
HETATM   14  O   UNL     1       9.878   8.502  24.367  0.00  0.00    -0.267 OA
BRANCH  12  15
HETATM   15  C   UNL     1       7.067   7.926  23.732  0.00  0.00     0.037 A 
HETATM   16  C   UNL     1       5.853   8.163  24.424  0.00  0.00     0.033 A 
HETATM   17  C   UNL     1       5.056   7.128  24.930  0.00  0.00     0.044 A 
HETATM   18  C   UNL     1       5.464   5.819  24.766  0.00  0.00     0.116 A 
HETATM   19  F   UNL     1       4.725   4.822  25.265  0.00  0.00    -0.206 F 
HETATM   20  C   UNL     1       6.634   5.537  24.079  0.00  0.00     0.044 A 
HETATM   21  C   UNL     1       7.423   6.580  23.562  0.00  0.00     0.033 A 
ENDBRANCH  12  15
ENDBRANCH   1  11
BRANCH   3  22
HETATM   22  O   UNL     1      11.292   9.198  21.641  0.00  0.00    -0.360 OA
HETATM   23  H   UNL     1      12.067   8.846  22.137  0.00  0.00     0.217 HD
ENDBRANCH   3  22
BRANCH  10  24
HETATM   24  C   UNL     1       9.186  15.194  24.098  0.00  0.00     0.100 C 
BRANCH  24  25
HETATM   25  C   UNL     1       7.738  14.956  23.675  0.00  0.00    -0.052 A 
HETATM   26  C   UNL     1       7.381  14.298  22.486  0.00  0.00     0.007 A 
HETATM   27  C   UNL     1       6.042  14.082  22.151  0.00  0.00     0.001 A 
HETATM   28  C   UNL     1       5.024  14.600  22.944  0.00  0.00     0.007 A 
HETATM   29  C   UNL     1       5.334  15.382  24.059  0.00  0.00    -0.061 A 
HETATM   30  C   UNL     1       6.686  15.518  24.440  0.00  0.00     0.014 A 
HETATM   31  C   UNL     1       4.219  16.056  24.806  0.00  0.00     0.048 C 
ENDBRANCH  24  25
ENDBRANCH  10  24
TORSDOF 5
ENDMDL
MODEL 4
REMARK VINA RESULT:    -8.428      3.370      6.237
REMARK INTER + INTRA:         -11.453
REMARK INTER:                 -10.082
REMARK INTRA:                  -1.371
REMARK UNBOUND:                -0.808
REMARK  5 active torsions:
REMARK  status: ('A' for Active; 'I' for Inactive)
REMARK    1  A    between atoms: C_7  and  N_8 
REMARK       I    between atoms: N_8  and  C_10 
REMARK    2  A    between atoms: C_10  and  C_12 
REMARK    3  A    between atoms: C_14  and  O_15 
REMARK    4  A    between atoms: C_22  and  C_23 
REMARK    5  A    between atoms: C_23  and  C_24 
ROOT
HETATM    1  C   UNL     1       4.581  14.802  23.307  0.00  0.00     0.066 C 
HETATM    2  C   UNL     1       5.551  14.355  22.388  0.00  0.00     0.035 C 
HETATM    3  C   UNL     1       5.031  15.440  24.481  0.00  0.00     0.083 C 
HETATM    4  C   UNL     1       6.394  15.545  24.800  0.00  0.00     0.069 C 
HETATM    5  C   UNL     1       7.297  14.916  23.936  0.00  0.00     0.065 A 
HETATM    6  C   UNL     1       6.914  14.291  22.760  0.00  0.00     0.020 A 
HETATM    7  N   UNL     1       8.654  14.779  23.994  0.00  0.00    -0.277 N 
HETATM    8  H   UNL     1       9.284  15.158  24.689  0.00  0.00     0.189 HD
HETATM    9  N   UNL     1       9.170  14.008  23.015  0.00  0.00    -0.178 NA
HETATM   10  C   UNL     1       8.111  13.668  22.259  0.00  0.00     0.071 A 
ENDROOT
BRANCH   1  11
HETATM   11  C   UNL     1       3.085  14.647  23.090  0.00  0.00     0.260 C 
HETATM   12  N   UNL     1       2.482  13.349  22.947  0.00  0.00    -0.318 N 
HETATM   13  C   UNL     1       3.261  12.126  23.072  0.00  0.00     0.159 C 
HETATM   14  O   UNL     1       2.458  15.715  23.102  0.00  0.00    -0.267 OA
BRANCH  12  15
HETATM   15  C   UNL     1       1.061  13.172  22.630  0.00  0.00     0.037 A 
HETATM   16  C   UNL     1       0.608  13.315  21.295  0.00  0.00     0.033 A 
HETATM   17  C   UNL     1      -0.738  13.174  20.932  0.00  0.00     0.044 A 
HETATM   18  C   UNL     1      -1.675  12.898  21.909  0.00  0.00     0.116 A 
HETATM   19  F   UNL     1      -2.967  12.785  21.580  0.00  0.00    -0.206 F 
HETATM   20  C   UNL     1      -1.277  12.730  23.225  0.00  0.00     0.044 A 
HETATM   21  C   UNL     1       0.077  12.860  23.580  0.00  0.00     0.033 A 
ENDBRANCH  12  15
ENDBRANCH   1  11
BRANCH   3  22
HETATM   22  O   UNL     1       4.187  16.010  25.405  0.00  0.00    -0.360 OA
HETATM   23  H   UNL     1       4.131  15.398  26.175  0.00  0.00     0.217 HD
ENDBRANCH   3  22
BRANCH  10  24
HETATM   24  C   UNL     1       8.321  12.730  21.095  0.00  0.00     0.100 C 
BRANCH  24  25
HETATM   25  C   UNL     1       7.226  11.669  21.006  0.00  0.00    -0.052 A 
HETATM   26  C   UNL     1       6.969  10.740  22.028  0.00  0.00     0.007 A 
HETATM   27  C   UNL     1       5.940   9.803  21.914  0.00  0.00     0.001 A 
HETATM   28  C   UNL     1       5.202   9.704  20.739  0.00  0.00     0.007 A 
HETATM   29  C   UNL     1       5.517  10.514  19.645  0.00  0.00    -0.061 A 
HETATM   30  C   UNL     1       6.496  11.519  19.801  0.00  0.00     0.014 A 
HETATM   31  C   UNL     1       4.809  10.280  18.341  0.00  0.00     0.048 C 
ENDBRANCH  24  25
ENDBRANCH  10  24
TORSDOF 5
ENDMDL
MODEL 5
REMARK VINA RESULT:    -8.396      4.331      6.835
REMARK INTER + INTRA:         -11.413
REMARK INTER:                 -10.665
REMARK INTRA:                  -0.748
REMARK UNBOUND:                -0.808
REMARK  5 active torsions:
REMARK  status: ('A' for Active; 'I' for Inactive)
REMARK    1  A    between atoms: C_7  and  N_8 
REMARK       I    between atoms: N_8  and  C_10 
REMARK    2  A    between atoms: C_10  and  C_12 
REMARK    3  A    between atoms: C_14  and  O_15 
REMARK    4  A    between atoms: C_22  and  C_23 
REMARK    5  A    between atoms: C_23  and  C_24 
ROOT
HETATM    1  C   UNL     1       4.555  14.680  23.463  0.00  0.00     0.066 C 
HETATM    2  C   UNL     1       5.556  14.025  22.718  0.00  0.00     0.035 C 
HETATM    3  C   UNL     1       4.962  15.487  24.545  0.00  0.00     0.083 C 
HETATM    4  C   UNL     1       6.301  15.569  24.954  0.00  0.00     0.069 C 
HETATM    5  C   UNL     1       7.218  14.748  24.290  0.00  0.00     0.065 A 
HETATM    6  C   UNL     1       6.879  13.948  23.209  0.00  0.00     0.020 A 
HETATM    7  N   UNL     1       8.555  14.546  24.485  0.00  0.00    -0.277 N 
HETATM    8  H   UNL     1       9.157  15.005  25.156  0.00  0.00     0.189 HD
HETATM    9  N   UNL     1       9.085  13.587  23.699  0.00  0.00    -0.178 NA
HETATM   10  C   UNL     1       8.063  13.181  22.925  0.00  0.00     0.071 A 
ENDROOT
BRANCH   1  11
HETATM   11  C   UNL     1       3.071  14.575  23.149  0.00  0.00     0.260 C 
HETATM   12  N   UNL     1       2.427  13.296  23.008  0.00  0.00    -0.318 N 
HETATM   13  C   UNL     1       3.146  12.049  23.226  0.00  0.00     0.159 C 
HETATM   14  O   UNL     1       2.488  15.665  23.084  0.00  0.00    -0.267 OA
BRANCH  12  15
HETATM   15  C   UNL     1       1.024  13.163  22.601  0.00  0.00     0.037 A 
HETATM   16  C   UNL     1       0.030  12.865  23.566  0.00  0.00     0.033 A 
HETATM   17  C   UNL     1      -1.323  12.711  23.236  0.00  0.00     0.044 A 
HETATM   18  C   UNL     1      -1.715  12.836  21.918  0.00  0.00     0.116 A 
HETATM   19  F   UNL     1      -3.000  12.667  21.585  0.00  0.00    -0.206 F 
HETATM   20  C   UNL     1      -0.781  13.146  20.942  0.00  0.00     0.044 A 
HETATM   21  C   UNL     1       0.572  13.313  21.281  0.00  0.00     0.033 A 
ENDBRANCH  12  15
ENDBRANCH   1  11
BRANCH   3  22
HETATM   22  O   UNL     1       4.094  16.257  25.283  0.00  0.00    -0.360 OA
HETATM   23  H   UNL     1       4.518  17.136  25.420  0.00  0.00     0.217 HD
ENDBRANCH   3  22
BRANCH  10  24
HETATM   24  C   UNL     1       8.291  12.042  21.959  0.00  0.00     0.100 C 
BRANCH  24  25
HETATM   25  C   UNL     1       8.663  10.746  22.677  0.00  0.00    -0.052 A 
HETATM   26  C   UNL     1       9.990  10.339  22.892  0.00  0.00     0.007 A 
HETATM   27  C   UNL     1      10.283   9.156  23.575  0.00  0.00     0.001 A 
HETATM   28  C   UNL     1       9.261   8.302  23.978  0.00  0.00     0.007 A 
HETATM   29  C   UNL     1       7.934   8.599  23.660  0.00  0.00    -0.061 A 
HETATM   30  C   UNL     1       7.641   9.838  23.051  0.00  0.00     0.014 A 
HETATM   31  C   UNL     1       6.869   7.587  23.969  0.00  0.00     0.048 C 
ENDBRANCH  24  25
ENDBRANCH  10  24
TORSDOF 5
ENDMDL
MODEL 6
REMARK VINA RESULT:    -8.243      1.575      1.980
REMARK INTER + INTRA:         -11.220
REMARK INTER:                 -10.580
REMARK INTRA:                  -0.640
REMARK UNBOUND:                -0.808
REMARK  5 active torsions:
REMARK  status: ('A' for Active; 'I' for Inactive)
REMARK    1  A    between atoms: C_7  and  N_8 
REMARK       I    between atoms: N_8  and  C_10 
REMARK    2  A    between atoms: C_10  and  C_12 
REMARK    3  A    between atoms: C_14  and  O_15 
REMARK    4  A    between atoms: C_22  and  C_23 
REMARK    5  A    between atoms: C_23  and  C_24 
ROOT
HETATM    1  C   UNL     1       6.943  10.523  22.001  0.00  0.00     0.066 C 
HETATM    2  C   UNL     1       6.724  11.868  22.361  0.00  0.00     0.035 C 
HETATM    3  C   UNL     1       8.089   9.883  22.514  0.00  0.00     0.083 C 
HETATM    4  C   UNL     1       9.051  10.566  23.274  0.00  0.00     0.069 C 
HETATM    5  C   UNL     1       8.868  11.943  23.437  0.00  0.00     0.065 A 
HETATM    6  C   UNL     1       7.753  12.623  22.971  0.00  0.00     0.020 A 
HETATM    7  N   UNL     1       9.637  12.889  24.052  0.00  0.00    -0.277 N 
HETATM    8  H   UNL     1      10.504  12.748  24.555  0.00  0.00     0.189 HD
HETATM    9  N   UNL     1       9.174  14.148  23.915  0.00  0.00    -0.178 NA
HETATM   10  C   UNL     1       8.028  14.012  23.223  0.00  0.00     0.071 A 
ENDROOT
BRANCH   1  11
HETATM   11  C   UNL     1       6.004   9.731  21.107  0.00  0.00     0.260 C 
HETATM   12  N   UNL     1       5.894  10.014  19.701  0.00  0.00    -0.318 N 
HETATM   13  C   UNL     1       6.724  11.022  19.057  0.00  0.00     0.159 C 
HETATM   14  O   UNL     1       5.405   8.814  21.687  0.00  0.00    -0.267 OA
BRANCH  12  15
HETATM   15  C   UNL     1       4.920   9.340  18.836  0.00  0.00     0.037 A 
HETATM   16  C   UNL     1       4.447   9.981  17.664  0.00  0.00     0.033 A 
HETATM   17  C   UNL     1       3.506   9.395  16.807  0.00  0.00     0.044 A 
HETATM   18  C   UNL     1       2.999   8.147  17.114  0.00  0.00     0.116 A 
HETATM   19  F   UNL     1       2.082   7.587  16.318  0.00  0.00    -0.206 F 
HETATM   20  C   UNL     1       3.445   7.473  18.239  0.00  0.00     0.044 A 
HETATM   21  C   UNL     1       4.400   8.061  19.087  0.00  0.00     0.033 A 
ENDBRANCH  12  15
ENDBRANCH   1  11
BRANCH   3  22
HETATM   22  O   UNL     1       8.361   8.549  22.322  0.00  0.00    -0.360 OA
HETATM   23  H   UNL     1       7.507   8.093  22.138  0.00  0.00     0.217 HD
ENDBRANCH   3  22
BRANCH  10  24
HETATM   24  C   UNL     1       7.270  15.256  22.822  0.00  0.00     0.100 C 
BRANCH  24  25
HETATM   25  C   UNL     1       5.860  15.283  23.409  0.00  0.00    -0.052 A 
HETATM   26  C   UNL     1       5.546  15.904  24.630  0.00  0.00     0.007 A 
HETATM   27  C   UNL     1       4.237  15.925  25.116  0.00  0.00     0.001 A 
HETATM   28  C   UNL     1       3.225  15.245  24.447  0.00  0.00     0.007 A 
HETATM   29  C   UNL     1       3.520  14.498  23.305  0.00  0.00    -0.061 A 
HETATM   30  C   UNL     1       4.825  14.557  22.771  0.00  0.00     0.014 A 
HETATM   31  C   UNL     1       2.441  13.651  22.693  0.00  0.00     0.048 C 
ENDBRANCH  24  25
ENDBRANCH  10  24
TORSDOF 5
ENDMDL
MODEL 7
REMARK VINA RESULT:    -8.177      2.291      4.914
REMARK INTER + INTRA:         -11.136
REMARK INTER:                  -9.839
REMARK INTRA:                  -1.297
REMARK UNBOUND:                -0.808
REMARK  5 active torsions:
REMARK  status: ('A' for Active; 'I' for Inactive)
REMARK    1  A    between atoms: C_7  and  N_8 
REMARK       I    between atoms: N_8  and  C_10 
REMARK    2  A    between atoms: C_10  and  C_12 
REMARK    3  A    between atoms: C_14  and  O_15 
REMARK    4  A    between atoms: C_22  and  C_23 
REMARK    5  A    between atoms: C_23  and  C_24 
ROOT
HETATM    1  C   UNL     1       5.039  12.877  22.460  0.00  0.00     0.066 C 
HETATM    2  C   UNL     1       6.184  13.695  22.383  0.00  0.00     0.035 C 
HETATM    3  C   UNL     1       4.347  12.827  23.686  0.00  0.00     0.083 C 
HETATM    4  C   UNL     1       4.817  13.476  24.838  0.00  0.00     0.069 C 
HETATM    5  C   UNL     1       6.057  14.116  24.742  0.00  0.00     0.065 A 
HETATM    6  C   UNL     1       6.774  14.213  23.560  0.00  0.00     0.020 A 
HETATM    7  N   UNL     1       6.809  14.770  25.676  0.00  0.00    -0.277 N 
HETATM    8  H   UNL     1       6.574  14.947  26.644  0.00  0.00     0.189 HD
HETATM    9  N   UNL     1       8.013  15.176  25.225  0.00  0.00    -0.178 NA
HETATM   10  C   UNL     1       8.028  14.814  23.929  0.00  0.00     0.071 A 
ENDROOT
BRANCH   1  11
HETATM   11  C   UNL     1       4.509  12.066  21.289  0.00  0.00     0.260 C 
HETATM   12  N   UNL     1       5.334  11.098  20.616  0.00  0.00    -0.318 N 
HETATM   13  C   UNL     1       6.687  10.803  21.066  0.00  0.00     0.159 C 
HETATM   14  O   UNL     1       3.319  12.280  21.022  0.00  0.00    -0.267 OA
BRANCH  12  15
HETATM   15  C   UNL     1       4.887  10.379  19.419  0.00  0.00     0.037 A 
HETATM   16  C   UNL     1       4.583  11.093  18.234  0.00  0.00     0.033 A 
HETATM   17  C   UNL     1       4.136  10.464  17.064  0.00  0.00     0.044 A 
HETATM   18  C   UNL     1       3.967   9.094  17.057  0.00  0.00     0.116 A 
HETATM   19  F   UNL     1       3.518   8.483  15.955  0.00  0.00    -0.206 F 
HETATM   20  C   UNL     1       4.270   8.350  18.186  0.00  0.00     0.044 A 
HETATM   21  C   UNL     1       4.730   8.986  19.352  0.00  0.00     0.033 A 
ENDBRANCH  12  15
ENDBRANCH   1  11
BRANCH   3  22
HETATM   22  O   UNL     1       3.163  12.150  23.860  0.00  0.00    -0.360 OA
HETATM   23  H   UNL     1       2.494  12.561  23.264  0.00  0.00     0.217 HD
ENDBRANCH   3  22
BRANCH  10  24
HETATM   24  C   UNL     1       9.281  15.056  23.122  0.00  0.00     0.100 C 
BRANCH  24  25
HETATM   25  C   UNL     1       9.757  13.792  22.409  0.00  0.00    -0.052 A 
HETATM   26  C   UNL     1       9.692  13.623  21.016  0.00  0.00     0.007 A 
HETATM   27  C   UNL     1      10.162  12.459  20.404  0.00  0.00     0.001 A 
HETATM   28  C   UNL     1      10.621  11.394  21.172  0.00  0.00     0.007 A 
HETATM   29  C   UNL     1      10.572  11.464  22.566  0.00  0.00    -0.061 A 
HETATM   30  C   UNL     1      10.182  12.677  23.173  0.00  0.00     0.014 A 
HETATM   31  C   UNL     1      10.928  10.245  23.367  0.00  0.00     0.048 C 
ENDBRANCH  24  25
ENDBRANCH  10  24
TORSDOF 5
ENDMDL
MODEL 8
REMARK VINA RESULT:    -8.172      1.756      2.457
REMARK INTER + INTRA:         -11.129
REMARK INTER:                 -10.321
REMARK INTRA:                  -0.808
REMARK UNBOUND:                -0.808
REMARK  5 active torsions:
REMARK  status: ('A' for Active; 'I' for Inactive)
REMARK    1  A    between atoms: C_7  and  N_8 
REMARK       I    between atoms: N_8  and  C_10 
REMARK    2  A    between atoms: C_10  and  C_12 
REMARK    3  A    between atoms: C_14  and  O_15 
REMARK    4  A    between atoms: C_22  and  C_23 
REMARK    5  A    between atoms: C_23  and  C_24 
ROOT
HETATM    1  C   UNL     1       8.741  12.105  21.999  0.00  0.00     0.066 C 
HETATM    2  C   UNL     1       8.225  12.624  23.204  0.00  0.00     0.035 C 
HETATM    3  C   UNL     1      10.130  11.877  21.923  0.00  0.00     0.083 C 
HETATM    4  C   UNL     1      11.007  12.244  22.956  0.00  0.00     0.069 C 
HETATM    5  C   UNL     1      10.453  12.924  24.044  0.00  0.00     0.065 A 
HETATM    6  C   UNL     1       9.094  13.160  24.183  0.00  0.00     0.020 A 
HETATM    7  N   UNL     1      11.029  13.464  25.159  0.00  0.00    -0.277 N 
HETATM    8  H   UNL     1      12.004  13.434  25.426  0.00  0.00     0.189 HD
HETATM    9  N   UNL     1      10.169  14.139  25.949  0.00  0.00    -0.178 NA
HETATM   10  C   UNL     1       8.974  13.993  25.349  0.00  0.00     0.071 A 
ENDROOT
BRANCH   1  11
HETATM   11  C   UNL     1       7.879  11.766  20.795  0.00  0.00     0.260 C 
HETATM   12  N   UNL     1       6.715  10.930  20.921  0.00  0.00    -0.318 N 
HETATM   13  C   UNL     1       6.271  10.428  22.213  0.00  0.00     0.159 C 
HETATM   14  O   UNL     1       8.242  12.310  19.743  0.00  0.00    -0.267 OA
BRANCH  12  15
HETATM   15  C   UNL     1       5.927  10.498  19.762  0.00  0.00     0.037 A 
HETATM   16  C   UNL     1       5.063  11.413  19.110  0.00  0.00     0.033 A 
HETATM   17  C   UNL     1       4.274  11.056  18.009  0.00  0.00     0.044 A 
HETATM   18  C   UNL     1       4.320   9.759  17.537  0.00  0.00     0.116 A 
HETATM   19  F   UNL     1       3.553   9.398  16.502  0.00  0.00    -0.206 F 
HETATM   20  C   UNL     1       5.164   8.834  18.130  0.00  0.00     0.044 A 
HETATM   21  C   UNL     1       5.963   9.202  19.226  0.00  0.00     0.033 A 
ENDBRANCH  12  15
ENDBRANCH   1  11
BRANCH   3  22
HETATM   22  O   UNL     1      10.742  11.281  20.845  0.00  0.00    -0.360 OA
HETATM   23  H   UNL     1      10.042  10.835  20.314  0.00  0.00     0.217 HD
ENDBRANCH   3  22
BRANCH  10  24
HETATM   24  C   UNL     1       7.776  14.699  25.939  0.00  0.00     0.100 C 
BRANCH  24  25
HETATM   25  C   UNL     1       6.591  14.722  24.975  0.00  0.00    -0.052 A 
HETATM   26  C   UNL     1       6.342  15.781  24.086  0.00  0.00     0.007 A 
HETATM   27  C   UNL     1       5.259  15.748  23.205  0.00  0.00     0.001 A 
HETATM   28  C   UNL     1       4.342  14.703  23.253  0.00  0.00     0.007 A 
HETATM   29  C   UNL     1       4.472  13.701  24.216  0.00  0.00    -0.061 A 
HETATM   30  C   UNL     1       5.618  13.694  25.040  0.00  0.00     0.014 A 
HETATM   31  C   UNL     1       3.386  12.672  24.346  0.00  0.00     0.048 C 
ENDBRANCH  24  25
ENDBRANCH  10  24
TORSDOF 5
ENDMDL
MODEL 9
REMARK VINA RESULT:    -8.035      4.211      7.186
REMARK INTER + INTRA:         -10.956
REMARK INTER:                  -9.792
REMARK INTRA:                  -1.164
REMARK UNBOUND:                -0.808
REMARK  5 active torsions:
REMARK  status: ('A' for Active; 'I' for Inactive)
REMARK    1  A    between atoms: C_7  and  N_8 
REMARK       I    between atoms: N_8  and  C_10 
REMARK    2  A    between atoms: C_10  and  C_12 
REMARK    3  A    between atoms: C_14  and  O_15 
REMARK    4  A    between atoms: C_22  and  C_23 
REMARK    5  A    between atoms: C_23  and  C_24 
ROOT
HETATM    1  C   UNL     1       6.852  10.869  23.730  0.00  0.00     0.066 C 
HETATM    2  C   UNL     1       8.019  11.648  23.601  0.00  0.00     0.035 C 
HETATM    3  C   UNL     1       6.963   9.479  23.529  0.00  0.00     0.083 C 
HETATM    4  C   UNL     1       8.160   8.877  23.110  0.00  0.00     0.069 C 
HETATM    5  C   UNL     1       9.229   9.730  22.819  0.00  0.00     0.065 A 
HETATM    6  C   UNL     1       9.184  11.101  23.015  0.00  0.00     0.020 A 
HETATM    7  N   UNL     1      10.482   9.474  22.339  0.00  0.00    -0.277 N 
HETATM    8  H   UNL     1      10.892   8.573  22.131  0.00  0.00     0.189 HD
HETATM    9  N   UNL     1      11.211  10.581  22.089  0.00  0.00    -0.178 NA
HETATM   10  C   UNL     1      10.418  11.600  22.468  0.00  0.00     0.071 A 
ENDROOT
BRANCH   1  11
HETATM   11  C   UNL     1       5.493  11.447  24.089  0.00  0.00     0.260 C 
HETATM   12  N   UNL     1       4.784  12.309  23.181  0.00  0.00    -0.318 N 
HETATM   13  C   UNL     1       5.301  12.612  21.854  0.00  0.00     0.159 C 
HETATM   14  O   UNL     1       5.053  11.068  25.183  0.00  0.00    -0.267 OA
BRANCH  12  15
HETATM   15  C   UNL     1       3.524  12.967  23.542  0.00  0.00     0.037 A 
HETATM   16  C   UNL     1       2.288  12.405  23.138  0.00  0.00     0.033 A 
HETATM   17  C   UNL     1       1.053  12.994  23.439  0.00  0.00     0.044 A 
HETATM   18  C   UNL     1       1.025  14.180  24.146  0.00  0.00     0.116 A 
HETATM   19  F   UNL     1      -0.146  14.766  24.419  0.00  0.00    -0.206 F 
HETATM   20  C   UNL     1       2.208  14.758  24.580  0.00  0.00     0.044 A 
HETATM   21  C   UNL     1       3.443  14.154  24.286  0.00  0.00     0.033 A 
ENDBRANCH  12  15
ENDBRANCH   1  11
BRANCH   3  22
HETATM   22  O   UNL     1       5.925   8.599  23.725  0.00  0.00    -0.360 OA
HETATM   23  H   UNL     1       6.296   7.687  23.691  0.00  0.00     0.217 HD
ENDBRANCH   3  22
BRANCH  10  24
HETATM   24  C   UNL     1      10.901  13.015  22.254  0.00  0.00     0.100 C 
BRANCH  24  25
HETATM   25  C   UNL     1      11.003  13.791  23.565  0.00  0.00    -0.052 A 
HETATM   26  C   UNL     1      10.878  15.188  23.644  0.00  0.00     0.007 A 
HETATM   27  C   UNL     1      10.955  15.855  24.869  0.00  0.00     0.001 A 
HETATM   28  C   UNL     1      11.254  15.156  26.035  0.00  0.00     0.007 A 
HETATM   29  C   UNL     1      11.525  13.788  25.981  0.00  0.00    -0.061 A 
HETATM   30  C   UNL     1      11.356  13.108  24.755  0.00  0.00     0.014 A 
HETATM   31  C   UNL     1      11.995  13.091  27.225  0.00  0.00     0.048 C 
ENDBRANCH  24  25
ENDBRANCH  10  24
TORSDOF 5
ENDMDL
