MODEL 1
REMARK VINA RESULT:    -9.528      0.000      0.000
REMARK INTER + INTRA:         -13.245
REMARK INTER:                 -11.994
REMARK INTRA:                  -1.251
REMARK UNBOUND:                -1.210
REMARK  5 active torsions:
REMARK  status: ('A' for Active; 'I' for Inactive)
REMARK    1  A    between atoms: C_7  and  N_10 
REMARK       I    between atoms: N_10  and  C_12 
REMARK    2  A    between atoms: C_12  and  C_14 
REMARK    3  A    between atoms: C_16  and  O_17 
REMARK    4  A    between atoms: C_24  and  C_25 
REMARK    5  A    between atoms: C_25  and  C_26 
ROOT
HETATM    1  C   UNL     1       9.245  14.974  21.707  0.00  0.00     0.066 A 
HETATM    2  C   UNL     1       9.580  13.619  21.446  0.00  0.00     0.035 A 
HETATM    3  C   UNL     1      10.192  15.955  21.407  0.00  0.00     0.083 A 
HETATM    4  C   UNL     1      11.484  15.642  20.956  0.00  0.00     0.069 A 
HETATM    5  C   UNL     1      11.787  14.296  20.757  0.00  0.00     0.065 A 
HETATM    6  C   UNL     1      10.875  13.271  20.994  0.00  0.00     0.020 A 
HETATM    7  N   UNL     1      12.919  13.680  20.299  0.00  0.00    -0.277 N 
HETATM    8  H   UNL     1      13.786  14.114  20.007  0.00  0.00     0.189 HD
HETATM    9  N   UNL     1      12.828  12.347  20.218  0.00  0.00    -0.178 NA
HETATM   10  C   UNL     1      11.595  12.075  20.681  0.00  0.00     0.071 A 
ENDROOT
BRANCH   1  11
HETATM   11  C   UNL     1       7.814  15.235  22.102  0.00  0.00     0.260 C 
HETATM   12  N   UNL     1       7.161  14.524  23.144  0.00  0.00    -0.318 N 
HETATM   13  C   UNL     1       7.889  13.646  24.060  0.00  0.00     0.159 C 
HETATM   14  O   UNL     1       7.264  16.105  21.415  0.00  0.00    -0.267 OA
BRANCH  12  15
HETATM   15  C   UNL     1       5.727  14.652  23.370  0.00  0.00     0.039 A 
HETATM   16  C   UNL     1       4.832  13.616  23.056  0.00  0.00     0.069 A 
HETATM   17  C   UNL     1       3.483  13.765  23.361  0.00  0.00     0.107 A 
HETATM   18  O   UNL     1       2.511  12.839  23.138  0.00  0.00    -0.323 OA
HETATM   19  C   UNL     1       2.993  14.895  23.966  0.00  0.00     0.105 A 
HETATM   20  C   UNL     1       1.350  13.534  23.638  0.00  0.00     0.352 A 
HETATM   21  O   UNL     1       1.655  14.828  24.196  0.00  0.00    -0.323 OA
HETATM   22  C   UNL     1       3.819  15.941  24.291  0.00  0.00     0.042 A 
HETATM   23  C   UNL     1       5.185  15.818  23.985  0.00  0.00     0.032 A 
ENDBRANCH  12  15
ENDBRANCH   1  11
BRANCH   3  24
HETATM   24  O   UNL     1       9.899  17.285  21.507  0.00  0.00    -0.360 OA
HETATM   25  H   UNL     1       9.081  17.422  21.001  0.00  0.00     0.217 HD
ENDBRANCH   3  24
BRANCH  10  26
HETATM   26  C   UNL     1      11.147  10.652  20.763  0.00  0.00     0.100 C 
BRANCH  26  27
HETATM   27  C   UNL     1      10.615  10.427  22.164  0.00  0.00    -0.052 A 
HETATM   28  C   UNL     1      11.463  10.593  23.268  0.00  0.00     0.007 A 
HETATM   29  C   UNL     1      10.965  10.489  24.565  0.00  0.00     0.001 A 
HETATM   30  C   UNL     1       9.624  10.186  24.780  0.00  0.00     0.007 A 
HETATM   31  C   UNL     1       8.767   9.958  23.696  0.00  0.00    -0.061 A 
HETATM   32  C   UNL     1       9.265  10.095  22.392  0.00  0.00     0.014 A 
HETATM   33  C   UNL     1       7.346   9.527  23.928  0.00  0.00     0.048 C 
ENDBRANCH  26  27
ENDBRANCH  10  26
TORSDOF 5
ENDMDL
MODEL 2
REMARK VINA RESULT:    -8.895      3.312      5.614
REMARK INTER + INTRA:         -12.445
REMARK INTER:                 -11.299
REMARK INTRA:                  -1.146
REMARK UNBOUND:                -1.210
REMARK  5 active torsions:
REMARK  status: ('A' for Active; 'I' for Inactive)
REMARK    1  A    between atoms: C_7  and  N_10 
REMARK       I    between atoms: N_10  and  C_12 
REMARK    2  A    between atoms: C_12  and  C_14 
REMARK    3  A    between atoms: C_16  and  O_17 
REMARK    4  A    between atoms: C_24  and  C_25 
REMARK    5  A    between atoms: C_25  and  C_26 
ROOT
HETATM    1  C   UNL     1       5.057  13.213  24.113  0.00  0.00     0.066 A 
HETATM    2  C   UNL     1       5.899  13.952  23.240  0.00  0.00     0.035 A 
HETATM    3  C   UNL     1       5.461  13.059  25.441  0.00  0.00     0.083 A 
HETATM    4  C   UNL     1       6.702  13.517  25.909  0.00  0.00     0.069 A 
HETATM    5  C   UNL     1       7.518  14.197  25.006  0.00  0.00     0.065 A 
HETATM    6  C   UNL     1       7.158  14.424  23.681  0.00  0.00     0.020 A 
HETATM    7  N   UNL     1       8.743  14.787  25.159  0.00  0.00    -0.277 N 
HETATM    8  H   UNL     1       9.306  14.838  25.999  0.00  0.00     0.189 HD
HETATM    9  N   UNL     1       9.213  15.376  24.053  0.00  0.00    -0.178 NA
HETATM   10  C   UNL     1       8.273  15.126  23.124  0.00  0.00     0.071 A 
ENDROOT
BRANCH   1  11
HETATM   11  C   UNL     1       3.706  12.835  23.563  0.00  0.00     0.260 C 
HETATM   12  N   UNL     1       2.525  13.569  23.850  0.00  0.00    -0.318 N 
HETATM   13  C   UNL     1       2.561  14.872  24.515  0.00  0.00     0.159 C 
HETATM   14  O   UNL     1       3.726  11.814  22.864  0.00  0.00    -0.267 OA
BRANCH  12  15
HETATM   15  C   UNL     1       1.207  13.069  23.475  0.00  0.00     0.039 A 
HETATM   16  C   UNL     1       0.421  12.314  24.361  0.00  0.00     0.069 A 
HETATM   17  C   UNL     1      -0.857  11.926  23.975  0.00  0.00     0.107 A 
HETATM   18  O   UNL     1      -1.736  11.216  24.735  0.00  0.00    -0.323 OA
HETATM   19  C   UNL     1      -1.384  12.261  22.752  0.00  0.00     0.105 A 
HETATM   20  C   UNL     1      -2.858  11.113  23.835  0.00  0.00     0.352 A 
HETATM   21  O   UNL     1      -2.652  11.804  22.585  0.00  0.00    -0.323 OA
HETATM   22  C   UNL     1      -0.660  12.993  21.845  0.00  0.00     0.042 A 
HETATM   23  C   UNL     1       0.639  13.390  22.208  0.00  0.00     0.032 A 
ENDBRANCH  12  15
ENDBRANCH   1  11
BRANCH   3  24
HETATM   24  O   UNL     1       4.648  12.476  26.371  0.00  0.00    -0.360 OA
HETATM   25  H   UNL     1       5.226  12.198  27.101  0.00  0.00     0.217 HD
ENDBRANCH   3  24
BRANCH  10  26
HETATM   26  C   UNL     1       8.478  15.620  21.729  0.00  0.00     0.100 C 
BRANCH  26  27
HETATM   27  C   UNL     1       8.985  14.453  20.907  0.00  0.00    -0.052 A 
HETATM   28  C   UNL     1       8.162  13.878  19.930  0.00  0.00     0.007 A 
HETATM   29  C   UNL     1       8.648  12.873  19.097  0.00  0.00     0.001 A 
HETATM   30  C   UNL     1       9.949  12.404  19.247  0.00  0.00     0.007 A 
HETATM   31  C   UNL     1      10.776  12.920  20.252  0.00  0.00    -0.061 A 
HETATM   32  C   UNL     1      10.293  13.955  21.068  0.00  0.00     0.014 A 
HETATM   33  C   UNL     1      12.143  12.343  20.484  0.00  0.00     0.048 C 
ENDBRANCH  26  27
ENDBRANCH  10  26
TORSDOF 5
ENDMDL
MODEL 3
REMARK VINA RESULT:    -8.872      3.132      4.651
REMARK INTER + INTRA:         -12.416
REMARK INTER:                 -11.356
REMARK INTRA:                  -1.060
REMARK UNBOUND:                -1.210
REMARK  5 active torsions:
REMARK  status: ('A' for Active; 'I' for Inactive)
REMARK    1  A    between atoms: C_7  and  N_10 
REMARK       I    between atoms: N_10  and  C_12 
REMARK    2  A    between atoms: C_12  and  C_14 
REMARK    3  A    between atoms: C_16  and  O_17 
REMARK    4  A    between atoms: C_24  and  C_25 
REMARK    5  A    between atoms: C_25  and  C_26 
ROOT
HETATM    1  C   UNL     1       6.814  14.129  24.836  0.00  0.00     0.066 A 
HETATM    2  C   UNL     1       7.439  14.689  23.691  0.00  0.00     0.035 A 
HETATM    3  C   UNL     1       7.510  14.162  26.046  0.00  0.00     0.083 A 
HETATM    4  C   UNL     1       8.829  14.634  26.144  0.00  0.00     0.069 A 
HETATM    5  C   UNL     1       9.421  15.132  24.985  0.00  0.00     0.065 A 
HETATM    6  C   UNL     1       8.768  15.169  23.756  0.00  0.00     0.020 A 
HETATM    7  N   UNL     1      10.652  15.686  24.763  0.00  0.00    -0.277 N 
HETATM    8  H   UNL     1      11.393  15.841  25.436  0.00  0.00     0.189 HD
HETATM    9  N   UNL     1      10.860  16.078  23.500  0.00  0.00    -0.178 NA
HETATM   10  C   UNL     1       9.730  15.730  22.859  0.00  0.00     0.071 A 
ENDROOT
BRANCH   1  11
HETATM   11  C   UNL     1       5.371  13.729  24.671  0.00  0.00     0.260 C 
HETATM   12  N   UNL     1       4.331  14.671  24.446  0.00  0.00    -0.318 N 
HETATM   13  C   UNL     1       4.608  16.073  24.133  0.00  0.00     0.159 C 
HETATM   14  O   UNL     1       5.181  12.511  24.777  0.00  0.00    -0.267 OA
BRANCH  12  15
HETATM   15  C   UNL     1       2.927  14.281  24.493  0.00  0.00     0.039 A 
HETATM   16  C   UNL     1       2.244  13.830  23.351  0.00  0.00     0.069 A 
HETATM   17  C   UNL     1       0.927  13.403  23.470  0.00  0.00     0.107 A 
HETATM   18  O   UNL     1       0.154  12.920  22.460  0.00  0.00    -0.323 OA
HETATM   19  C   UNL     1       0.266  13.402  24.674  0.00  0.00     0.105 A 
HETATM   20  C   UNL     1      -1.078  12.652  23.160  0.00  0.00     0.352 A 
HETATM   21  O   UNL     1      -1.003  12.926  24.574  0.00  0.00    -0.323 OA
HETATM   22  C   UNL     1       0.881  13.836  25.820  0.00  0.00     0.042 A 
HETATM   23  C   UNL     1       2.210  14.282  25.725  0.00  0.00     0.032 A 
ENDBRANCH  12  15
ENDBRANCH   1  11
BRANCH   3  24
HETATM   24  O   UNL     1       6.928  13.763  27.216  0.00  0.00    -0.360 OA
HETATM   25  H   UNL     1       5.985  13.984  27.140  0.00  0.00     0.217 HD
ENDBRANCH   3  24
BRANCH  10  26
HETATM   26  C   UNL     1       9.615  15.996  21.393  0.00  0.00     0.100 C 
BRANCH  26  27
HETATM   27  C   UNL     1       9.678  14.659  20.685  0.00  0.00    -0.052 A 
HETATM   28  C   UNL     1       8.590  14.224  19.915  0.00  0.00     0.007 A 
HETATM   29  C   UNL     1       8.671  13.046  19.176  0.00  0.00     0.001 A 
HETATM   30  C   UNL     1       9.824  12.268  19.219  0.00  0.00     0.007 A 
HETATM   31  C   UNL     1      10.905  12.648  20.025  0.00  0.00    -0.061 A 
HETATM   32  C   UNL     1      10.831  13.851  20.742  0.00  0.00     0.014 A 
HETATM   33  C   UNL     1      12.107  11.756  20.154  0.00  0.00     0.048 C 
ENDBRANCH  26  27
ENDBRANCH  10  26
TORSDOF 5
ENDMDL
MODEL 4
REMARK VINA RESULT:    -8.627      2.977      8.806
REMARK INTER + INTRA:         -12.107
REMARK INTER:                 -11.580
REMARK INTRA:                  -0.527
REMARK UNBOUND:                -1.210
REMARK  5 active torsions:
REMARK  status: ('A' for Active; 'I' for Inactive)
REMARK    1  A    between atoms: C_7  and  N_10 
REMARK       I    between atoms: N_10  and  C_12 
REMARK    2  A    between atoms: C_12  and  C_14 
REMARK    3  A    between atoms: C_16  and  O_17 
REMARK    4  A    between atoms: C_24  and  C_25 
REMARK    5  A    between atoms: C_25  and  C_26 
ROOT
HETATM    1  C   UNL     1       5.580  14.641  23.720  0.00  0.00     0.066 A 
HETATM    2  C   UNL     1       4.302  14.217  23.269  0.00  0.00     0.035 A 
HETATM    3  C   UNL     1       5.711  15.034  25.053  0.00  0.00     0.083 A 
HETATM    4  C   UNL     1       4.613  15.117  25.924  0.00  0.00     0.069 A 
HETATM    5  C   UNL     1       3.368  14.736  25.428  0.00  0.00     0.065 A 
HETATM    6  C   UNL     1       3.175  14.293  24.123  0.00  0.00     0.020 A 
HETATM    7  N   UNL     1       2.137  14.668  26.022  0.00  0.00    -0.277 N 
HETATM    8  H   UNL     1       1.898  14.896  26.980  0.00  0.00     0.189 HD
HETATM    9  N   UNL     1       1.161  14.224  25.222  0.00  0.00    -0.178 NA
HETATM   10  C   UNL     1       1.772  14.029  24.039  0.00  0.00     0.071 A 
ENDROOT
BRANCH   1  11
HETATM   11  C   UNL     1       6.720  14.436  22.756  0.00  0.00     0.260 C 
HETATM   12  N   UNL     1       7.257  13.155  22.459  0.00  0.00    -0.318 N 
HETATM   13  C   UNL     1       6.603  11.919  22.890  0.00  0.00     0.159 C 
HETATM   14  O   UNL     1       7.154  15.490  22.274  0.00  0.00    -0.267 OA
BRANCH  12  15
HETATM   15  C   UNL     1       8.483  13.004  21.685  0.00  0.00     0.039 A 
HETATM   16  C   UNL     1       9.751  13.179  22.264  0.00  0.00     0.069 A 
HETATM   17  C   UNL     1      10.888  12.950  21.495  0.00  0.00     0.107 A 
HETATM   18  O   UNL     1      12.174  13.056  21.928  0.00  0.00    -0.323 OA
HETATM   19  C   UNL     1      10.814  12.552  20.184  0.00  0.00     0.105 A 
HETATM   20  C   UNL     1      12.897  12.716  20.727  0.00  0.00     0.352 A 
HETATM   21  O   UNL     1      12.037  12.363  19.624  0.00  0.00    -0.323 OA
HETATM   22  C   UNL     1       9.603  12.371  19.565  0.00  0.00     0.042 A 
HETATM   23  C   UNL     1       8.439  12.605  20.317  0.00  0.00     0.032 A 
ENDBRANCH  12  15
ENDBRANCH   1  11
BRANCH   3  24
HETATM   24  O   UNL     1       6.929  15.330  25.595  0.00  0.00    -0.360 OA
HETATM   25  H   UNL     1       7.060  14.706  26.328  0.00  0.00     0.217 HD
ENDBRANCH   3  24
BRANCH  10  26
HETATM   26  C   UNL     1       0.967  13.550  22.875  0.00  0.00     0.100 C 
BRANCH  26  27
HETATM   27  C   UNL     1      -0.082  12.599  23.413  0.00  0.00    -0.052 A 
HETATM   28  C   UNL     1      -1.441  12.850  23.173  0.00  0.00     0.007 A 
HETATM   29  C   UNL     1      -2.411  11.935  23.571  0.00  0.00     0.001 A 
HETATM   30  C   UNL     1      -2.046  10.773  24.244  0.00  0.00     0.007 A 
HETATM   31  C   UNL     1      -0.703  10.523  24.549  0.00  0.00    -0.061 A 
HETATM   32  C   UNL     1       0.275  11.433  24.116  0.00  0.00     0.014 A 
HETATM   33  C   UNL     1      -0.319   9.323  25.366  0.00  0.00     0.048 C 
ENDBRANCH  26  27
ENDBRANCH  10  26
TORSDOF 5
ENDMDL
MODEL 5
REMARK VINA RESULT:    -8.572      4.479      7.375
REMARK INTER + INTRA:         -12.037
REMARK INTER:                 -11.679
REMARK INTRA:                  -0.358
REMARK UNBOUND:                -1.210
REMARK  5 active torsions:
REMARK  status: ('A' for Active; 'I' for Inactive)
REMARK    1  A    between atoms: C_7  and  N_10 
REMARK       I    between atoms: N_10  and  C_12 
REMARK    2  A    between atoms: C_12  and  C_14 
REMARK    3  A    between atoms: C_16  and  O_17 
REMARK    4  A    between atoms: C_24  and  C_25 
REMARK    5  A    between atoms: C_25  and  C_26 
ROOT
HETATM    1  C   UNL     1       6.979  11.169  21.477  0.00  0.00     0.066 A 
HETATM    2  C   UNL     1       6.434  12.440  21.799  0.00  0.00     0.035 A 
HETATM    3  C   UNL     1       8.157  10.778  22.117  0.00  0.00     0.083 A 
HETATM    4  C   UNL     1       8.863  11.630  22.982  0.00  0.00     0.069 A 
HETATM    5  C   UNL     1       8.316  12.887  23.235  0.00  0.00     0.065 A 
HETATM    6  C   UNL     1       7.124  13.323  22.664  0.00  0.00     0.020 A 
HETATM    7  N   UNL     1       8.732  13.910  24.041  0.00  0.00    -0.277 N 
HETATM    8  H   UNL     1       9.556  13.940  24.629  0.00  0.00     0.189 HD
HETATM    9  N   UNL     1       7.920  14.974  24.046  0.00  0.00    -0.178 NA
HETATM   10  C   UNL     1       6.949  14.648  23.174  0.00  0.00     0.071 A 
ENDROOT
BRANCH   1  11
HETATM   11  C   UNL     1       6.119  10.282  20.616  0.00  0.00     0.260 C 
HETATM   12  N   UNL     1       5.265   9.282  21.152  0.00  0.00    -0.318 N 
HETATM   13  C   UNL     1       4.983   9.187  22.585  0.00  0.00     0.159 C 
HETATM   14  O   UNL     1       6.252  10.492  19.404  0.00  0.00    -0.267 OA
BRANCH  12  15
HETATM   15  C   UNL     1       4.601   8.307  20.295  0.00  0.00     0.039 A 
HETATM   16  C   UNL     1       3.758   7.312  20.818  0.00  0.00     0.069 A 
HETATM   17  C   UNL     1       3.095   6.455  19.947  0.00  0.00     0.107 A 
HETATM   18  O   UNL     1       2.233   5.466  20.309  0.00  0.00    -0.323 OA
HETATM   19  C   UNL     1       3.232   6.550  18.585  0.00  0.00     0.105 A 
HETATM   20  C   UNL     1       1.875   4.928  19.019  0.00  0.00     0.352 A 
HETATM   21  O   UNL     1       2.483   5.634  17.918  0.00  0.00    -0.323 OA
HETATM   22  C   UNL     1       4.046   7.497  18.018  0.00  0.00     0.042 A 
HETATM   23  C   UNL     1       4.735   8.370  18.878  0.00  0.00     0.032 A 
ENDBRANCH  12  15
ENDBRANCH   1  11
BRANCH   3  24
HETATM   24  O   UNL     1       8.673   9.524  21.960  0.00  0.00    -0.360 OA
HETATM   25  H   UNL     1       8.155   9.103  21.254  0.00  0.00     0.217 HD
ENDBRANCH   3  24
BRANCH  10  26
HETATM   26  C   UNL     1       5.858  15.631  22.899  0.00  0.00     0.100 C 
BRANCH  26  27
HETATM   27  C   UNL     1       4.742  15.354  23.884  0.00  0.00    -0.052 A 
HETATM   28  C   UNL     1       4.882  15.739  25.225  0.00  0.00     0.007 A 
HETATM   29  C   UNL     1       3.827  15.584  26.120  0.00  0.00     0.001 A 
HETATM   30  C   UNL     1       2.628  15.013  25.702  0.00  0.00     0.007 A 
HETATM   31  C   UNL     1       2.479  14.567  24.383  0.00  0.00    -0.061 A 
HETATM   32  C   UNL     1       3.534  14.755  23.476  0.00  0.00     0.014 A 
HETATM   33  C   UNL     1       1.226  13.856  23.958  0.00  0.00     0.048 C 
ENDBRANCH  26  27
ENDBRANCH  10  26
TORSDOF 5
ENDMDL
MODEL 6
REMARK VINA RESULT:    -8.475      3.064      8.506
REMARK INTER + INTRA:         -11.915
REMARK INTER:                 -10.633
REMARK INTRA:                  -1.282
REMARK UNBOUND:                -1.210
REMARK  5 active torsions:
REMARK  status: ('A' for Active; 'I' for Inactive)
REMARK    1  A    between atoms: C_7  and  N_10 
REMARK       I    between atoms: N_10  and  C_12 
REMARK    2  A    between atoms: C_12  and  C_14 
REMARK    3  A    between atoms: C_16  and  O_17 
REMARK    4  A    between atoms: C_24  and  C_25 
REMARK    5  A    between atoms: C_25  and  C_26 
ROOT
HETATM    1  C   UNL     1       5.031  10.765  23.971  0.00  0.00     0.066 A 
HETATM    2  C   UNL     1       3.929  11.652  23.852  0.00  0.00     0.035 A 
HETATM    3  C   UNL     1       4.786   9.470  24.433  0.00  0.00     0.083 A 
HETATM    4  C   UNL     1       3.519   9.054  24.872  0.00  0.00     0.069 A 
HETATM    5  C   UNL     1       2.474   9.972  24.781  0.00  0.00     0.065 A 
HETATM    6  C   UNL     1       2.640  11.264  24.290  0.00  0.00     0.020 A 
HETATM    7  N   UNL     1       1.145   9.864  25.085  0.00  0.00    -0.277 N 
HETATM    8  H   UNL     1       0.656   9.056  25.451  0.00  0.00     0.189 HD
HETATM    9  N   UNL     1       0.431  10.969  24.838  0.00  0.00    -0.178 NA
HETATM   10  C   UNL     1       1.341  11.853  24.389  0.00  0.00     0.071 A 
ENDROOT
BRANCH   1  11
HETATM   11  C   UNL     1       6.335  11.253  23.396  0.00  0.00     0.260 C 
HETATM   12  N   UNL     1       7.062  12.340  23.950  0.00  0.00    -0.318 N 
HETATM   13  C   UNL     1       6.720  12.923  25.247  0.00  0.00     0.159 C 
HETATM   14  O   UNL     1       6.692  10.633  22.386  0.00  0.00    -0.267 OA
BRANCH  12  15
HETATM   15  C   UNL     1       8.209  12.920  23.261  0.00  0.00     0.039 A 
HETATM   16  C   UNL     1       8.071  13.994  22.366  0.00  0.00     0.069 A 
HETATM   17  C   UNL     1       9.207  14.553  21.793  0.00  0.00     0.107 A 
HETATM   18  O   UNL     1       9.227  15.608  20.933  0.00  0.00    -0.323 OA
HETATM   19  C   UNL     1      10.469  14.094  22.077  0.00  0.00     0.105 A 
HETATM   20  C   UNL     1      10.642  15.732  20.681  0.00  0.00     0.352 A 
HETATM   21  O   UNL     1      11.439  14.792  21.431  0.00  0.00    -0.323 OA
HETATM   22  C   UNL     1      10.664  13.044  22.939  0.00  0.00     0.042 A 
HETATM   23  C   UNL     1       9.531  12.455  23.524  0.00  0.00     0.032 A 
ENDBRANCH  12  15
ENDBRANCH   1  11
BRANCH   3  24
HETATM   24  O   UNL     1       5.768   8.521  24.452  0.00  0.00    -0.360 OA
HETATM   25  H   UNL     1       5.509   7.876  25.132  0.00  0.00     0.217 HD
ENDBRANCH   3  24
BRANCH  10  26
HETATM   26  C   UNL     1       0.898  13.234  24.033  0.00  0.00     0.100 C 
BRANCH  26  27
HETATM   27  C   UNL     1       1.938  14.194  24.571  0.00  0.00    -0.052 A 
HETATM   28  C   UNL     1       1.917  14.560  25.925  0.00  0.00     0.007 A 
HETATM   29  C   UNL     1       2.925  15.360  26.458  0.00  0.00     0.001 A 
HETATM   30  C   UNL     1       3.950  15.834  25.644  0.00  0.00     0.007 A 
HETATM   31  C   UNL     1       3.965  15.533  24.277  0.00  0.00    -0.061 A 
HETATM   32  C   UNL     1       2.966  14.700  23.751  0.00  0.00     0.014 A 
HETATM   33  C   UNL     1       5.010  16.130  23.378  0.00  0.00     0.048 C 
ENDBRANCH  26  27
ENDBRANCH  10  26
TORSDOF 5
ENDMDL
MODEL 7
REMARK VINA RESULT:    -8.471      4.208      7.617
REMARK INTER + INTRA:         -11.910
REMARK INTER:                 -10.700
REMARK INTRA:                  -1.210
REMARK UNBOUND:                -1.210
REMARK  5 active torsions:
REMARK  status: ('A' for Active; 'I' for Inactive)
REMARK    1  A    between atoms: C_7  and  N_10 
REMARK       I    between atoms: N_10  and  C_12 
REMARK    2  A    between atoms: C_12  and  C_14 
REMARK    3  A    between atoms: C_16  and  O_17 
REMARK    4  A    between atoms: C_24  and  C_25 
REMARK    5  A    between atoms: C_25  and  C_26 
ROOT
HETATM    1  C   UNL     1       7.542  10.744  23.571  0.00  0.00     0.066 A 
HETATM    2  C   UNL     1       7.109  12.094  23.495  0.00  0.00     0.035 A 
HETATM    3  C   UNL     1       8.343  10.371  24.652  0.00  0.00     0.083 A 
HETATM    4  C   UNL     1       8.810  11.297  25.598  0.00  0.00     0.069 A 
HETATM    5  C   UNL     1       8.398  12.622  25.460  0.00  0.00     0.065 A 
HETATM    6  C   UNL     1       7.564  13.052  24.431  0.00  0.00     0.020 A 
HETATM    7  N   UNL     1       8.642  13.731  26.221  0.00  0.00    -0.277 N 
HETATM    8  H   UNL     1       9.197  13.793  27.067  0.00  0.00     0.189 HD
HETATM    9  N   UNL     1       8.046  14.845  25.781  0.00  0.00    -0.178 NA
HETATM   10  C   UNL     1       7.414  14.456  24.659  0.00  0.00     0.071 A 
ENDROOT
BRANCH   1  11
HETATM   11  C   UNL     1       6.927   9.797  22.574  0.00  0.00     0.260 C 
HETATM   12  N   UNL     1       5.889   8.888  22.914  0.00  0.00    -0.318 N 
HETATM   13  C   UNL     1       5.185   8.957  24.195  0.00  0.00     0.159 C 
HETATM   14  O   UNL     1       7.431   9.871  21.446  0.00  0.00    -0.267 OA
BRANCH  12  15
HETATM   15  C   UNL     1       5.455   7.848  21.990  0.00  0.00     0.039 A 
HETATM   16  C   UNL     1       4.309   7.997  21.191  0.00  0.00     0.069 A 
HETATM   17  C   UNL     1       3.984   7.003  20.275  0.00  0.00     0.107 A 
HETATM   18  O   UNL     1       2.923   7.024  19.422  0.00  0.00    -0.323 OA
HETATM   19  C   UNL     1       4.750   5.875  20.119  0.00  0.00     0.105 A 
HETATM   20  C   UNL     1       3.092   5.764  18.742  0.00  0.00     0.352 A 
HETATM   21  O   UNL     1       4.270   5.043  19.158  0.00  0.00    -0.323 OA
HETATM   22  C   UNL     1       5.877   5.673  20.876  0.00  0.00     0.042 A 
HETATM   23  C   UNL     1       6.222   6.659  21.816  0.00  0.00     0.032 A 
ENDBRANCH  12  15
ENDBRANCH   1  11
BRANCH   3  24
HETATM   24  O   UNL     1       8.693   9.069  24.866  0.00  0.00    -0.360 OA
HETATM   25  H   UNL     1       7.967   8.673  25.377  0.00  0.00     0.217 HD
ENDBRANCH   3  24
BRANCH  10  26
HETATM   26  C   UNL     1       6.649  15.466  23.868  0.00  0.00     0.100 C 
BRANCH  26  27
HETATM   27  C   UNL     1       5.187  15.311  24.231  0.00  0.00    -0.052 A 
HETATM   28  C   UNL     1       4.313  14.660  23.349  0.00  0.00     0.007 A 
HETATM   29  C   UNL     1       2.990  14.419  23.711  0.00  0.00     0.001 A 
HETATM   30  C   UNL     1       2.510  14.851  24.944  0.00  0.00     0.007 A 
HETATM   31  C   UNL     1       3.344  15.555  25.821  0.00  0.00    -0.061 A 
HETATM   32  C   UNL     1       4.684  15.767  25.465  0.00  0.00     0.014 A 
HETATM   33  C   UNL     1       2.798  16.114  27.104  0.00  0.00     0.048 C 
ENDBRANCH  26  27
ENDBRANCH  10  26
TORSDOF 5
ENDMDL
MODEL 8
REMARK VINA RESULT:    -8.465      3.481      8.816
REMARK INTER + INTRA:         -11.902
REMARK INTER:                 -10.879
REMARK INTRA:                  -1.023
REMARK UNBOUND:                -1.210
REMARK  5 active torsions:
REMARK  status: ('A' for Active; 'I' for Inactive)
REMARK    1  A    between atoms: C_7  and  N_10 
REMARK       I    between atoms: N_10  and  C_12 
REMARK    2  A    between atoms: C_12  and  C_14 
REMARK    3  A    between atoms: C_16  and  O_17 
REMARK    4  A    between atoms: C_24  and  C_25 
REMARK    5  A    between atoms: C_25  and  C_26 
ROOT
HETATM    1  C   UNL     1       5.467  10.728  23.766  0.00  0.00     0.066 A 
HETATM    2  C   UNL     1       4.300  11.530  23.658  0.00  0.00     0.035 A 
HETATM    3  C   UNL     1       5.338   9.452  24.319  0.00  0.00     0.083 A 
HETATM    4  C   UNL     1       4.130   8.983  24.857  0.00  0.00     0.069 A 
HETATM    5  C   UNL     1       3.019   9.821  24.772  0.00  0.00     0.065 A 
HETATM    6  C   UNL     1       3.068  11.086  24.194  0.00  0.00     0.020 A 
HETATM    7  N   UNL     1       1.719   9.645  25.159  0.00  0.00    -0.277 N 
HETATM    8  H   UNL     1       1.309   8.831  25.601  0.00  0.00     0.189 HD
HETATM    9  N   UNL     1       0.917  10.682  24.888  0.00  0.00    -0.178 NA
HETATM   10  C   UNL     1       1.737  11.593  24.333  0.00  0.00     0.071 A 
ENDROOT
BRANCH   1  11
HETATM   11  C   UNL     1       6.701  11.263  23.087  0.00  0.00     0.260 C 
HETATM   12  N   UNL     1       7.102  10.856  21.787  0.00  0.00    -0.318 N 
HETATM   13  C   UNL     1       6.234  10.059  20.919  0.00  0.00     0.159 C 
HETATM   14  O   UNL     1       7.337  12.067  23.781  0.00  0.00    -0.267 OA
BRANCH  12  15
HETATM   15  C   UNL     1       8.399  11.232  21.238  0.00  0.00     0.039 A 
HETATM   16  C   UNL     1       9.592  10.631  21.674  0.00  0.00     0.069 A 
HETATM   17  C   UNL     1      10.792  10.976  21.063  0.00  0.00     0.107 A 
HETATM   18  O   UNL     1      12.014  10.460  21.364  0.00  0.00    -0.323 OA
HETATM   19  C   UNL     1      10.853  11.887  20.038  0.00  0.00     0.105 A 
HETATM   20  C   UNL     1      12.853  11.178  20.436  0.00  0.00     0.352 A 
HETATM   21  O   UNL     1      12.115  12.064  19.568  0.00  0.00    -0.323 OA
HETATM   22  C   UNL     1       9.722  12.510  19.574  0.00  0.00     0.042 A 
HETATM   23  C   UNL     1       8.497  12.184  20.181  0.00  0.00     0.032 A 
ENDBRANCH  12  15
ENDBRANCH   1  11
BRANCH   3  24
HETATM   24  O   UNL     1       6.384   8.574  24.339  0.00  0.00    -0.360 OA
HETATM   25  H   UNL     1       6.311   8.046  23.526  0.00  0.00     0.217 HD
ENDBRANCH   3  24
BRANCH  10  26
HETATM   26  C   UNL     1       1.181  12.916  23.920  0.00  0.00     0.100 C 
BRANCH  26  27
HETATM   27  C   UNL     1       2.096  13.985  24.478  0.00  0.00    -0.052 A 
HETATM   28  C   UNL     1       1.964  14.391  25.813  0.00  0.00     0.007 A 
HETATM   29  C   UNL     1       2.862  15.298  26.371  0.00  0.00     0.001 A 
HETATM   30  C   UNL     1       3.885  15.839  25.597  0.00  0.00     0.007 A 
HETATM   31  C   UNL     1       4.007  15.495  24.245  0.00  0.00    -0.061 A 
HETATM   32  C   UNL     1       3.119  14.557  23.697  0.00  0.00     0.014 A 
HETATM   33  C   UNL     1       5.045  16.157  23.384  0.00  0.00     0.048 C 
ENDBRANCH  26  27
ENDBRANCH  10  26
TORSDOF 5
ENDMDL
MODEL 9
REMARK VINA RESULT:    -8.384      3.588      9.070
REMARK INTER + INTRA:         -11.800
REMARK INTER:                 -10.403
REMARK INTRA:                  -1.397
REMARK UNBOUND:                -1.210
REMARK  5 active torsions:
REMARK  status: ('A' for Active; 'I' for Inactive)
REMARK    1  A    between atoms: C_7  and  N_10 
REMARK       I    between atoms: N_10  and  C_12 
REMARK    2  A    between atoms: C_12  and  C_14 
REMARK    3  A    between atoms: C_16  and  O_17 
REMARK    4  A    between atoms: C_24  and  C_25 
REMARK    5  A    between atoms: C_25  and  C_26 
ROOT
HETATM    1  C   UNL     1       4.011  10.240  24.847  0.00  0.00     0.066 A 
HETATM    2  C   UNL     1       3.134  11.265  24.402  0.00  0.00     0.035 A 
HETATM    3  C   UNL     1       3.449   9.042  25.294  0.00  0.00     0.083 A 
HETATM    4  C   UNL     1       2.063   8.858  25.410  0.00  0.00     0.069 A 
HETATM    5  C   UNL     1       1.238   9.907  25.005  0.00  0.00     0.065 A 
HETATM    6  C   UNL     1       1.732  11.110  24.510  0.00  0.00     0.020 A 
HETATM    7  N   UNL     1      -0.124  10.023  24.959  0.00  0.00    -0.277 N 
HETATM    8  H   UNL     1      -0.814   9.331  25.225  0.00  0.00     0.189 HD
HETATM    9  N   UNL     1      -0.562  11.193  24.480  0.00  0.00    -0.178 NA
HETATM   10  C   UNL     1       0.563  11.890  24.239  0.00  0.00     0.071 A 
ENDROOT
BRANCH   1  11
HETATM   11  C   UNL     1       5.479  10.478  24.607  0.00  0.00     0.260 C 
HETATM   12  N   UNL     1       6.199  11.535  25.224  0.00  0.00    -0.318 N 
HETATM   13  C   UNL     1       5.629  12.335  26.308  0.00  0.00     0.159 C 
HETATM   14  O   UNL     1       5.983   9.682  23.805  0.00  0.00    -0.267 OA
BRANCH  12  15
HETATM   15  C   UNL     1       7.561  11.867  24.821  0.00  0.00     0.039 A 
HETATM   16  C   UNL     1       7.827  12.681  23.707  0.00  0.00     0.069 A 
HETATM   17  C   UNL     1       9.143  13.023  23.414  0.00  0.00     0.107 A 
HETATM   18  O   UNL     1       9.546  13.820  22.387  0.00  0.00    -0.323 OA
HETATM   19  C   UNL     1      10.197  12.594  24.181  0.00  0.00     0.105 A 
HETATM   20  C   UNL     1      10.976  13.811  22.576  0.00  0.00     0.352 A 
HETATM   21  O   UNL     1      11.393  13.059  23.734  0.00  0.00    -0.323 OA
HETATM   22  C   UNL     1       9.997  11.793  25.276  0.00  0.00     0.042 A 
HETATM   23  C   UNL     1       8.677  11.425  25.589  0.00  0.00     0.032 A 
ENDBRANCH  12  15
ENDBRANCH   1  11
BRANCH   3  24
HETATM   24  O   UNL     1       4.225   7.965  25.615  0.00  0.00    -0.360 OA
HETATM   25  H   UNL     1       4.628   8.167  26.476  0.00  0.00     0.217 HD
ENDBRANCH   3  24
BRANCH  10  26
HETATM   26  C   UNL     1       0.457  13.283  23.712  0.00  0.00     0.100 C 
BRANCH  26  27
HETATM   27  C   UNL     1       1.496  14.119  24.430  0.00  0.00    -0.052 A 
HETATM   28  C   UNL     1       1.423  14.279  25.821  0.00  0.00     0.007 A 
HETATM   29  C   UNL     1       2.425  14.958  26.510  0.00  0.00     0.001 A 
HETATM   30  C   UNL     1       3.497  15.515  25.819  0.00  0.00     0.007 A 
HETATM   31  C   UNL     1       3.567  15.421  24.424  0.00  0.00    -0.061 A 
HETATM   32  C   UNL     1       2.572  14.708  23.738  0.00  0.00     0.014 A 
HETATM   33  C   UNL     1       4.667  16.111  23.669  0.00  0.00     0.048 C 
ENDBRANCH  26  27
ENDBRANCH  10  26
TORSDOF 5
ENDMDL
