MODEL 1
REMARK VINA RESULT:    -8.636      0.000      0.000
REMARK INTER + INTRA:         -10.063
REMARK INTER:                 -10.165
REMARK INTRA:                   0.102
REMARK UNBOUND:                -0.417
REMARK  3 active torsions:
REMARK  status: ('A' for Active; 'I' for Inactive)
REMARK    1  A    between atoms: C_7  and  N_8 
REMARK    2  A    between atoms: C_10  and  C_11 
REMARK       I    between atoms: C_11  and  N_13 
REMARK    3  A    between atoms: C_18  and  O_19 
ROOT
HETATM    1  C   UNL     1      -2.250  17.329  19.491  0.00  0.00     0.048 C 
HETATM    2  C   UNL     1      -2.859  16.172  20.226  0.00  0.00    -0.061 A 
HETATM    3  C   UNL     1      -3.980  15.511  19.735  0.00  0.00     0.009 A 
HETATM    4  C   UNL     1      -4.521  14.438  20.450  0.00  0.00     0.033 A 
HETATM    5  C   UNL     1      -3.985  14.000  21.656  0.00  0.00     0.073 A 
HETATM    6  N   UNL     1      -4.591  12.987  22.284  0.00  0.00    -0.218 NA
HETATM    7  C   UNL     1      -4.102  12.589  23.458  0.00  0.00     0.200 A 
HETATM    8  N   UNL     1      -3.027  13.092  24.052  0.00  0.00    -0.212 NA
HETATM    9  C   UNL     1      -2.407  14.102  23.392  0.00  0.00     0.140 A 
HETATM   10  C   UNL     1      -2.851  14.634  22.164  0.00  0.00     0.028 A 
HETATM   11  C   UNL     1      -2.295  15.723  21.425  0.00  0.00     0.023 A 
ENDROOT
BRANCH   9  12
HETATM   12  C   UNL     1      -1.136  14.600  24.020  0.00  0.00     0.274 C 
HETATM   13  O   UNL     1      -1.187  15.088  25.152  0.00  0.00    -0.266 OA
HETATM   14  N   UNL     1       0.084  14.516  23.364  0.00  0.00    -0.338 N 
HETATM   15  C   UNL     1       0.400  14.046  22.007  0.00  0.00     0.165 A 
HETATM   16  C   UNL     1       1.278  14.906  24.106  0.00  0.00     0.165 A 
HETATM   17  C   UNL     1       1.895  14.203  21.926  0.00  0.00    -0.032 A 
HETATM   18  C   UNL     1       2.761  13.946  20.873  0.00  0.00     0.012 A 
HETATM   19  C   UNL     1       2.390  14.701  23.137  0.00  0.00    -0.030 A 
HETATM   20  C   UNL     1       4.130  14.197  21.053  0.00  0.00     0.037 A 
HETATM   21  C   UNL     1       4.603  14.694  22.275  0.00  0.00     0.066 A 
HETATM   22  C   UNL     1       3.738  14.948  23.330  0.00  0.00     0.046 A 
BRANCH  21  23
HETATM   23  O   UNL     1       5.928  14.952  22.477  0.00  0.00    -0.361 OA
HETATM   24  H   UNL     1       6.427  14.650  21.702  0.00  0.00     0.217 HD
ENDBRANCH  21  23
ENDBRANCH   9  12
BRANCH   7  25
HETATM   25  N   UNL     1      -4.758  11.546  24.079  0.00  0.00    -0.271 NA
HETATM   26  H   UNL     1      -5.022  10.855  23.387  0.00  0.00     0.127 HD
HETATM   27  H   UNL     1      -4.228  11.219  24.873  0.00  0.00     0.127 HD
ENDBRANCH   7  25
TORSDOF 3
ENDMDL
MODEL 2
REMARK VINA RESULT:    -8.500      3.304      5.461
REMARK INTER + INTRA:          -9.912
REMARK INTER:                  -9.428
REMARK INTRA:                  -0.483
REMARK UNBOUND:                -0.417
REMARK  3 active torsions:
REMARK  status: ('A' for Active; 'I' for Inactive)
REMARK    1  A    between atoms: C_7  and  N_8 
REMARK    2  A    between atoms: C_10  and  C_11 
REMARK       I    between atoms: C_11  and  N_13 
REMARK    3  A    between atoms: C_18  and  O_19 
ROOT
HETATM    1  C   UNL     1       0.465  17.025  21.637  0.00  0.00     0.048 C 
HETATM    2  C   UNL     1      -0.805  16.508  21.027  0.00  0.00    -0.061 A 
HETATM    3  C   UNL     1      -1.630  17.329  20.267  0.00  0.00     0.009 A 
HETATM    4  C   UNL     1      -2.807  16.813  19.717  0.00  0.00     0.033 A 
HETATM    5  C   UNL     1      -3.201  15.492  19.906  0.00  0.00     0.073 A 
HETATM    6  N   UNL     1      -4.359  15.096  19.367  0.00  0.00    -0.218 NA
HETATM    7  C   UNL     1      -4.758  13.842  19.578  0.00  0.00     0.200 A 
HETATM    8  N   UNL     1      -4.077  12.924  20.253  0.00  0.00    -0.212 NA
HETATM    9  C   UNL     1      -2.892  13.332  20.772  0.00  0.00     0.140 A 
HETATM   10  C   UNL     1      -2.384  14.641  20.649  0.00  0.00     0.028 A 
HETATM   11  C   UNL     1      -1.176  15.170  21.202  0.00  0.00     0.023 A 
ENDROOT
BRANCH   9  12
HETATM   12  C   UNL     1      -2.083  12.263  21.450  0.00  0.00     0.274 C 
HETATM   13  O   UNL     1      -1.263  11.627  20.783  0.00  0.00    -0.266 OA
HETATM   14  N   UNL     1      -2.230  11.982  22.801  0.00  0.00    -0.338 N 
HETATM   15  C   UNL     1      -3.166  12.540  23.789  0.00  0.00     0.165 A 
HETATM   16  C   UNL     1      -1.310  11.019  23.396  0.00  0.00     0.165 A 
HETATM   17  C   UNL     1      -2.795  11.825  25.061  0.00  0.00    -0.032 A 
HETATM   18  C   UNL     1      -3.352  11.916  26.328  0.00  0.00     0.012 A 
HETATM   19  C   UNL     1      -1.728  10.951  24.823  0.00  0.00    -0.030 A 
HETATM   20  C   UNL     1      -2.825  11.116  27.353  0.00  0.00     0.037 A 
HETATM   21  C   UNL     1      -1.755  10.249  27.092  0.00  0.00     0.066 A 
HETATM   22  C   UNL     1      -1.194  10.159  25.826  0.00  0.00     0.046 A 
BRANCH  21  23
HETATM   23  O   UNL     1      -1.223   9.455  28.068  0.00  0.00    -0.361 OA
HETATM   24  H   UNL     1      -1.921   8.876  28.413  0.00  0.00     0.217 HD
ENDBRANCH  21  23
ENDBRANCH   9  12
BRANCH   7  25
HETATM   25  N   UNL     1      -5.961  13.474  19.012  0.00  0.00    -0.271 NA
HETATM   26  H   UNL     1      -6.365  12.715  19.546  0.00  0.00     0.127 HD
HETATM   27  H   UNL     1      -6.541  14.286  18.858  0.00  0.00     0.127 HD
ENDBRANCH   7  25
TORSDOF 3
ENDMDL
MODEL 3
REMARK VINA RESULT:    -8.263      1.841      2.307
REMARK INTER + INTRA:          -9.646
REMARK INTER:                  -9.194
REMARK INTRA:                  -0.452
REMARK UNBOUND:                -0.417
REMARK  3 active torsions:
REMARK  status: ('A' for Active; 'I' for Inactive)
REMARK    1  A    between atoms: C_7  and  N_8 
REMARK    2  A    between atoms: C_10  and  C_11 
REMARK       I    between atoms: C_11  and  N_13 
REMARK    3  A    between atoms: C_18  and  O_19 
ROOT
HETATM    1  C   UNL     1      -3.236  16.954  19.587  0.00  0.00     0.048 C 
HETATM    2  C   UNL     1      -3.543  15.799  20.493  0.00  0.00    -0.061 A 
HETATM    3  C   UNL     1      -4.744  15.723  21.191  0.00  0.00     0.009 A 
HETATM    4  C   UNL     1      -4.993  14.633  22.029  0.00  0.00     0.033 A 
HETATM    5  C   UNL     1      -4.074  13.604  22.206  0.00  0.00     0.073 A 
HETATM    6  N   UNL     1      -4.388  12.618  23.053  0.00  0.00    -0.218 NA
HETATM    7  C   UNL     1      -3.494  11.650  23.253  0.00  0.00     0.200 A 
HETATM    8  N   UNL     1      -2.316  11.556  22.649  0.00  0.00    -0.212 NA
HETATM    9  C   UNL     1      -2.022  12.549  21.773  0.00  0.00     0.140 A 
HETATM   10  C   UNL     1      -2.869  13.644  21.506  0.00  0.00     0.028 A 
HETATM   11  C   UNL     1      -2.622  14.756  20.643  0.00  0.00     0.023 A 
ENDROOT
BRANCH   9  12
HETATM   12  C   UNL     1      -0.732  12.385  21.020  0.00  0.00     0.274 C 
HETATM   13  O   UNL     1      -0.681  11.559  20.106  0.00  0.00    -0.266 OA
HETATM   14  N   UNL     1       0.392  13.141  21.323  0.00  0.00    -0.338 N 
HETATM   15  C   UNL     1       0.610  14.129  22.390  0.00  0.00     0.165 A 
HETATM   16  C   UNL     1       1.555  13.002  20.453  0.00  0.00     0.165 A 
HETATM   17  C   UNL     1       2.025  14.586  22.155  0.00  0.00    -0.032 A 
HETATM   18  C   UNL     1       2.797  15.494  22.866  0.00  0.00     0.012 A 
HETATM   19  C   UNL     1       2.560  13.930  21.041  0.00  0.00    -0.030 A 
HETATM   20  C   UNL     1       4.113  15.732  22.443  0.00  0.00     0.037 A 
HETATM   21  C   UNL     1       4.627  15.064  21.323  0.00  0.00     0.066 A 
HETATM   22  C   UNL     1       3.856  14.158  20.609  0.00  0.00     0.046 A 
BRANCH  21  23
HETATM   23  O   UNL     1       5.906  15.273  20.891  0.00  0.00    -0.361 OA
HETATM   24  H   UNL     1       6.350  14.414  20.805  0.00  0.00     0.217 HD
ENDBRANCH  21  23
ENDBRANCH   9  12
BRANCH   7  25
HETATM   25  N   UNL     1      -3.851  10.654  24.139  0.00  0.00    -0.271 NA
HETATM   26  H   UNL     1      -4.318   9.909  23.638  0.00  0.00     0.127 HD
HETATM   27  H   UNL     1      -3.062  10.395  24.714  0.00  0.00     0.127 HD
ENDBRANCH   7  25
TORSDOF 3
ENDMDL
MODEL 4
REMARK VINA RESULT:    -8.239      3.729      6.123
REMARK INTER + INTRA:          -9.620
REMARK INTER:                  -9.126
REMARK INTRA:                  -0.494
REMARK UNBOUND:                -0.417
REMARK  3 active torsions:
REMARK  status: ('A' for Active; 'I' for Inactive)
REMARK    1  A    between atoms: C_7  and  N_8 
REMARK    2  A    between atoms: C_10  and  C_11 
REMARK       I    between atoms: C_11  and  N_13 
REMARK    3  A    between atoms: C_18  and  O_19 
ROOT
HETATM    1  C   UNL     1       1.444   8.898  24.912  0.00  0.00     0.048 C 
HETATM    2  C   UNL     1       0.230   9.402  25.636  0.00  0.00    -0.061 A 
HETATM    3  C   UNL     1       0.071   9.212  27.004  0.00  0.00     0.009 A 
HETATM    4  C   UNL     1      -1.075   9.693  27.644  0.00  0.00     0.033 A 
HETATM    5  C   UNL     1      -2.086  10.360  26.960  0.00  0.00     0.073 A 
HETATM    6  N   UNL     1      -3.160  10.756  27.651  0.00  0.00    -0.218 NA
HETATM    7  C   UNL     1      -4.147  11.362  26.992  0.00  0.00     0.200 A 
HETATM    8  N   UNL     1      -4.142  11.646  25.695  0.00  0.00    -0.212 NA
HETATM    9  C   UNL     1      -3.036  11.261  25.011  0.00  0.00     0.140 A 
HETATM   10  C   UNL     1      -1.945  10.580  25.590  0.00  0.00     0.028 A 
HETATM   11  C   UNL     1      -0.767  10.095  24.942  0.00  0.00     0.023 A 
ENDROOT
BRANCH   9  12
HETATM   12  C   UNL     1      -2.994  11.673  23.567  0.00  0.00     0.274 C 
HETATM   13  O   UNL     1      -3.461  10.908  22.719  0.00  0.00    -0.266 OA
HETATM   14  N   UNL     1      -2.454  12.887  23.169  0.00  0.00    -0.338 N 
HETATM   15  C   UNL     1      -1.786  13.932  23.959  0.00  0.00     0.165 A 
HETATM   16  C   UNL     1      -2.577  13.254  21.761  0.00  0.00     0.165 A 
HETATM   17  C   UNL     1      -1.455  14.984  22.934  0.00  0.00    -0.032 A 
HETATM   18  C   UNL     1      -0.793  16.194  23.082  0.00  0.00     0.012 A 
HETATM   19  C   UNL     1      -1.912  14.583  21.673  0.00  0.00    -0.030 A 
HETATM   20  C   UNL     1      -0.595  16.995  21.947  0.00  0.00     0.037 A 
HETATM   21  C   UNL     1      -1.063  16.573  20.695  0.00  0.00     0.066 A 
HETATM   22  C   UNL     1      -1.728  15.364  20.546  0.00  0.00     0.046 A 
BRANCH  21  23
HETATM   23  O   UNL     1      -0.881  17.329  19.573  0.00  0.00    -0.361 OA
HETATM   24  H   UNL     1      -1.303  16.881  18.822  0.00  0.00     0.217 HD
ENDBRANCH  21  23
ENDBRANCH   9  12
BRANCH   7  25
HETATM   25  N   UNL     1      -5.240  11.749  27.738  0.00  0.00    -0.271 NA
HETATM   26  H   UNL     1      -5.433  12.729  27.569  0.00  0.00     0.127 HD
HETATM   27  H   UNL     1      -6.004  11.102  27.605  0.00  0.00     0.127 HD
ENDBRANCH   7  25
TORSDOF 3
ENDMDL
MODEL 5
REMARK VINA RESULT:    -8.219      3.165      5.278
REMARK INTER + INTRA:          -9.598
REMARK INTER:                  -9.139
REMARK INTRA:                  -0.458
REMARK UNBOUND:                -0.417
REMARK  3 active torsions:
REMARK  status: ('A' for Active; 'I' for Inactive)
REMARK    1  A    between atoms: C_7  and  N_8 
REMARK    2  A    between atoms: C_10  and  C_11 
REMARK       I    between atoms: C_11  and  N_13 
REMARK    3  A    between atoms: C_18  and  O_19 
ROOT
HETATM    1  C   UNL     1      -4.363  15.677  20.419  0.00  0.00     0.048 C 
HETATM    2  C   UNL     1      -2.935  16.116  20.553  0.00  0.00    -0.061 A 
HETATM    3  C   UNL     1      -2.332  16.924  19.596  0.00  0.00     0.009 A 
HETATM    4  C   UNL     1      -0.997  17.310  19.753  0.00  0.00     0.033 A 
HETATM    5  C   UNL     1      -0.229  16.908  20.840  0.00  0.00     0.073 A 
HETATM    6  N   UNL     1       1.048  17.301  20.889  0.00  0.00    -0.218 NA
HETATM    7  C   UNL     1       1.798  16.886  21.910  0.00  0.00     0.200 A 
HETATM    8  N   UNL     1       1.372  16.137  22.920  0.00  0.00    -0.212 NA
HETATM    9  C   UNL     1       0.068  15.767  22.870  0.00  0.00     0.140 A 
HETATM   10  C   UNL     1      -0.812  16.111  21.825  0.00  0.00     0.028 A 
HETATM   11  C   UNL     1      -2.180  15.727  21.665  0.00  0.00     0.023 A 
ENDROOT
BRANCH   9  12
HETATM   12  C   UNL     1      -0.431  15.003  24.064  0.00  0.00     0.274 C 
HETATM   13  O   UNL     1      -0.979  15.623  24.978  0.00  0.00    -0.266 OA
HETATM   14  N   UNL     1      -0.298  13.624  24.156  0.00  0.00    -0.338 N 
HETATM   15  C   UNL     1       0.364  12.673  23.251  0.00  0.00     0.165 A 
HETATM   16  C   UNL     1      -0.928  12.958  25.291  0.00  0.00     0.165 A 
HETATM   17  C   UNL     1       0.137  11.344  23.919  0.00  0.00    -0.032 A 
HETATM   18  C   UNL     1       0.557  10.076  23.544  0.00  0.00     0.012 A 
HETATM   19  C   UNL     1      -0.604  11.519  25.093  0.00  0.00    -0.030 A 
HETATM   20  C   UNL     1       0.223   8.987  24.363  0.00  0.00     0.037 A 
HETATM   21  C   UNL     1      -0.522   9.187  25.534  0.00  0.00     0.066 A 
HETATM   22  C   UNL     1      -0.945  10.454  25.909  0.00  0.00     0.046 A 
BRANCH  21  23
HETATM   23  O   UNL     1      -0.858   8.148  26.353  0.00  0.00    -0.361 OA
HETATM   24  H   UNL     1      -0.370   7.357  26.072  0.00  0.00     0.217 HD
ENDBRANCH  21  23
ENDBRANCH   9  12
BRANCH   7  25
HETATM   25  N   UNL     1       3.112  17.307  21.922  0.00  0.00    -0.271 NA
HETATM   26  H   UNL     1       3.500  17.173  22.848  0.00  0.00     0.127 HD
HETATM   27  H   UNL     1       3.618  16.900  21.149  0.00  0.00     0.127 HD
ENDBRANCH   7  25
TORSDOF 3
ENDMDL
MODEL 6
REMARK VINA RESULT:    -8.212      2.575      6.232
REMARK INTER + INTRA:          -9.590
REMARK INTER:                  -9.106
REMARK INTRA:                  -0.483
REMARK UNBOUND:                -0.417
REMARK  3 active torsions:
REMARK  status: ('A' for Active; 'I' for Inactive)
REMARK    1  A    between atoms: C_7  and  N_8 
REMARK    2  A    between atoms: C_10  and  C_11 
REMARK       I    between atoms: C_11  and  N_13 
REMARK    3  A    between atoms: C_18  and  O_19 
ROOT
HETATM    1  C   UNL     1      -3.073  17.324  19.900  0.00  0.00     0.048 C 
HETATM    2  C   UNL     1      -1.670  17.006  20.323  0.00  0.00    -0.061 A 
HETATM    3  C   UNL     1      -0.584  17.286  19.501  0.00  0.00     0.009 A 
HETATM    4  C   UNL     1       0.710  16.972  19.929  0.00  0.00     0.033 A 
HETATM    5  C   UNL     1       0.963  16.374  21.159  0.00  0.00     0.073 A 
HETATM    6  N   UNL     1       2.231  16.081  21.468  0.00  0.00    -0.218 NA
HETATM    7  C   UNL     1       2.474  15.474  22.629  0.00  0.00     0.200 A 
HETATM    8  N   UNL     1       1.558  15.163  23.538  0.00  0.00    -0.212 NA
HETATM    9  C   UNL     1       0.280  15.488  23.222  0.00  0.00     0.140 A 
HETATM   10  C   UNL     1      -0.105  16.097  22.011  0.00  0.00     0.028 A 
HETATM   11  C   UNL     1      -1.425  16.428  21.574  0.00  0.00     0.023 A 
ENDROOT
BRANCH   9  12
HETATM   12  C   UNL     1      -0.738  15.222  24.296  0.00  0.00     0.274 C 
HETATM   13  O   UNL     1      -0.831  16.018  25.233  0.00  0.00    -0.266 OA
HETATM   14  N   UNL     1      -1.573  14.115  24.252  0.00  0.00    -0.338 N 
HETATM   15  C   UNL     1      -1.618  12.999  23.296  0.00  0.00     0.165 A 
HETATM   16  C   UNL     1      -2.614  14.012  25.270  0.00  0.00     0.165 A 
HETATM   17  C   UNL     1      -2.752  12.151  23.806  0.00  0.00    -0.032 A 
HETATM   18  C   UNL     1      -3.249  10.947  23.328  0.00  0.00     0.012 A 
HETATM   19  C   UNL     1      -3.316  12.741  24.944  0.00  0.00    -0.030 A 
HETATM   20  C   UNL     1      -4.318  10.344  24.008  0.00  0.00     0.037 A 
HETATM   21  C   UNL     1      -4.868  10.954  25.143  0.00  0.00     0.066 A 
HETATM   22  C   UNL     1      -4.374  12.160  25.621  0.00  0.00     0.046 A 
BRANCH  21  23
HETATM   23  O   UNL     1      -5.905  10.389  25.827  0.00  0.00    -0.361 OA
HETATM   24  H   UNL     1      -5.549   9.897  26.585  0.00  0.00     0.217 HD
ENDBRANCH  21  23
ENDBRANCH   9  12
BRANCH   7  25
HETATM   25  N   UNL     1       3.793  15.183  22.910  0.00  0.00    -0.271 NA
HETATM   26  H   UNL     1       4.059  15.629  23.778  0.00  0.00     0.127 HD
HETATM   27  H   UNL     1       3.957  14.189  22.836  0.00  0.00     0.127 HD
ENDBRANCH   7  25
TORSDOF 3
ENDMDL
MODEL 7
REMARK VINA RESULT:    -8.172      3.362      4.816
REMARK INTER + INTRA:          -9.545
REMARK INTER:                  -9.047
REMARK INTRA:                  -0.498
REMARK UNBOUND:                -0.417
REMARK  3 active torsions:
REMARK  status: ('A' for Active; 'I' for Inactive)
REMARK    1  A    between atoms: C_7  and  N_8 
REMARK    2  A    between atoms: C_10  and  C_11 
REMARK       I    between atoms: C_11  and  N_13 
REMARK    3  A    between atoms: C_18  and  O_19 
ROOT
HETATM    1  C   UNL     1       0.283  17.301  22.516  0.00  0.00     0.048 C 
HETATM    2  C   UNL     1      -0.829  16.650  21.747  0.00  0.00    -0.061 A 
HETATM    3  C   UNL     1      -1.077  16.974  20.417  0.00  0.00     0.009 A 
HETATM    4  C   UNL     1      -2.124  16.348  19.734  0.00  0.00     0.033 A 
HETATM    5  C   UNL     1      -2.949  15.405  20.338  0.00  0.00     0.073 A 
HETATM    6  N   UNL     1      -3.945  14.883  19.614  0.00  0.00    -0.218 NA
HETATM    7  C   UNL     1      -4.760  14.007  20.200  0.00  0.00     0.200 A 
HETATM    8  N   UNL     1      -4.646  13.570  21.448  0.00  0.00    -0.212 NA
HETATM    9  C   UNL     1      -3.617  14.088  22.163  0.00  0.00     0.140 A 
HETATM   10  C   UNL     1      -2.712  15.048  21.665  0.00  0.00     0.028 A 
HETATM   11  C   UNL     1      -1.635  15.683  22.357  0.00  0.00     0.023 A 
ENDROOT
BRANCH   9  12
HETATM   12  C   UNL     1      -3.435  13.517  23.541  0.00  0.00     0.274 C 
HETATM   13  O   UNL     1      -4.044  14.032  24.481  0.00  0.00    -0.266 OA
HETATM   14  N   UNL     1      -2.611  12.425  23.776  0.00  0.00    -0.338 N 
HETATM   15  C   UNL     1      -1.739  11.681  22.856  0.00  0.00     0.165 A 
HETATM   16  C   UNL     1      -2.601  11.863  25.122  0.00  0.00     0.165 A 
HETATM   17  C   UNL     1      -1.138  10.615  23.733  0.00  0.00    -0.032 A 
HETATM   18  C   UNL     1      -0.213   9.628  23.428  0.00  0.00     0.012 A 
HETATM   19  C   UNL     1      -1.638  10.731  25.035  0.00  0.00    -0.030 A 
HETATM   20  C   UNL     1       0.204   8.759  24.448  0.00  0.00     0.037 A 
HETATM   21  C   UNL     1      -0.313   8.892  25.744  0.00  0.00     0.066 A 
HETATM   22  C   UNL     1      -1.240   9.878  26.051  0.00  0.00     0.046 A 
BRANCH  21  23
HETATM   23  O   UNL     1       0.077   8.064  26.757  0.00  0.00    -0.361 OA
HETATM   24  H   UNL     1      -0.714   7.695  27.181  0.00  0.00     0.217 HD
ENDBRANCH  21  23
ENDBRANCH   9  12
BRANCH   7  25
HETATM   25  N   UNL     1      -5.779  13.497  19.423  0.00  0.00    -0.271 NA
HETATM   26  H   UNL     1      -5.386  13.031  18.615  0.00  0.00     0.127 HD
HETATM   27  H   UNL     1      -6.422  12.964  19.991  0.00  0.00     0.127 HD
ENDBRANCH   7  25
TORSDOF 3
ENDMDL
MODEL 8
REMARK VINA RESULT:    -8.066      3.419      5.182
REMARK INTER + INTRA:          -9.427
REMARK INTER:                  -9.036
REMARK INTRA:                  -0.390
REMARK UNBOUND:                -0.417
REMARK  3 active torsions:
REMARK  status: ('A' for Active; 'I' for Inactive)
REMARK    1  A    between atoms: C_7  and  N_8 
REMARK    2  A    between atoms: C_10  and  C_11 
REMARK       I    between atoms: C_11  and  N_13 
REMARK    3  A    between atoms: C_18  and  O_19 
ROOT
HETATM    1  C   UNL     1       1.366   7.951  25.445  0.00  0.00     0.048 C 
HETATM    2  C   UNL     1       0.171   8.839  25.638  0.00  0.00    -0.061 A 
HETATM    3  C   UNL     1      -0.573   8.806  26.812  0.00  0.00     0.009 A 
HETATM    4  C   UNL     1      -1.682   9.646  26.954  0.00  0.00     0.033 A 
HETATM    5  C   UNL     1      -2.086  10.523  25.953  0.00  0.00     0.073 A 
HETATM    6  N   UNL     1      -3.177  11.265  26.167  0.00  0.00    -0.218 NA
HETATM    7  C   UNL     1      -3.588  12.079  25.195  0.00  0.00     0.200 A 
HETATM    8  N   UNL     1      -2.979  12.250  24.029  0.00  0.00    -0.212 NA
HETATM    9  C   UNL     1      -1.858  11.511  23.835  0.00  0.00     0.140 A 
HETATM   10  C   UNL     1      -1.347  10.589  24.772  0.00  0.00     0.028 A 
HETATM   11  C   UNL     1      -0.209   9.736  24.634  0.00  0.00     0.023 A 
ENDROOT
BRANCH   9  12
HETATM   12  C   UNL     1      -1.119  11.782  22.555  0.00  0.00     0.274 C 
HETATM   13  O   UNL     1      -1.579  11.338  21.501  0.00  0.00    -0.266 OA
HETATM   14  N   UNL     1       0.055  12.522  22.532  0.00  0.00    -0.338 N 
HETATM   15  C   UNL     1       0.833  13.098  23.639  0.00  0.00     0.165 A 
HETATM   16  C   UNL     1       0.628  12.841  21.229  0.00  0.00     0.165 A 
HETATM   17  C   UNL     1       1.977  13.783  22.938  0.00  0.00    -0.032 A 
HETATM   18  C   UNL     1       3.056  14.477  23.465  0.00  0.00     0.012 A 
HETATM   19  C   UNL     1       1.850  13.626  21.553  0.00  0.00    -0.030 A 
HETATM   20  C   UNL     1       4.006  15.012  22.582  0.00  0.00     0.037 A 
HETATM   21  C   UNL     1       3.858  14.844  21.199  0.00  0.00     0.066 A 
HETATM   22  C   UNL     1       2.778  14.152  20.670  0.00  0.00     0.046 A 
BRANCH  21  23
HETATM   23  O   UNL     1       4.769  15.349  20.316  0.00  0.00    -0.361 OA
HETATM   24  H   UNL     1       4.369  16.099  19.848  0.00  0.00     0.217 HD
ENDBRANCH  21  23
ENDBRANCH   9  12
BRANCH   7  25
HETATM   25  N   UNL     1      -4.722  12.822  25.451  0.00  0.00    -0.271 NA
HETATM   26  H   UNL     1      -4.971  13.352  24.625  0.00  0.00     0.127 HD
HETATM   27  H   UNL     1      -5.441  12.240  25.856  0.00  0.00     0.127 HD
ENDBRANCH   7  25
TORSDOF 3
ENDMDL
MODEL 9
REMARK VINA RESULT:    -8.025      2.871      5.774
REMARK INTER + INTRA:          -9.381
REMARK INTER:                  -8.964
REMARK INTRA:                  -0.417
REMARK UNBOUND:                -0.417
REMARK  3 active torsions:
REMARK  status: ('A' for Active; 'I' for Inactive)
REMARK    1  A    between atoms: C_7  and  N_8 
REMARK    2  A    between atoms: C_10  and  C_11 
REMARK       I    between atoms: C_11  and  N_13 
REMARK    3  A    between atoms: C_18  and  O_19 
ROOT
HETATM    1  C   UNL     1      -4.710  14.862  20.004  0.00  0.00     0.048 C 
HETATM    2  C   UNL     1      -3.357  15.490  20.162  0.00  0.00    -0.061 A 
HETATM    3  C   UNL     1      -3.098  16.778  19.707  0.00  0.00     0.009 A 
HETATM    4  C   UNL     1      -1.823  17.329  19.870  0.00  0.00     0.033 A 
HETATM    5  C   UNL     1      -0.781  16.630  20.470  0.00  0.00     0.073 A 
HETATM    6  N   UNL     1       0.413  17.227  20.553  0.00  0.00    -0.218 NA
HETATM    7  C   UNL     1       1.423  16.547  21.094  0.00  0.00     0.200 A 
HETATM    8  N   UNL     1       1.339  15.323  21.600  0.00  0.00    -0.212 NA
HETATM    9  C   UNL     1       0.117  14.739  21.533  0.00  0.00     0.140 A 
HETATM   10  C   UNL     1      -1.017  15.343  20.951  0.00  0.00     0.028 A 
HETATM   11  C   UNL     1      -2.324  14.787  20.792  0.00  0.00     0.023 A 
ENDROOT
BRANCH   9  12
HETATM   12  C   UNL     1       0.006  13.395  22.196  0.00  0.00     0.274 C 
HETATM   13  O   UNL     1       0.465  12.408  21.615  0.00  0.00    -0.266 OA
HETATM   14  N   UNL     1      -0.588  13.241  23.440  0.00  0.00    -0.338 N 
HETATM   15  C   UNL     1      -1.260  14.229  24.298  0.00  0.00     0.165 A 
HETATM   16  C   UNL     1      -0.533  11.920  24.058  0.00  0.00     0.165 A 
HETATM   17  C   UNL     1      -1.664  13.423  25.503  0.00  0.00    -0.032 A 
HETATM   18  C   UNL     1      -2.360  13.809  26.640  0.00  0.00     0.012 A 
HETATM   19  C   UNL     1      -1.244  12.096  25.354  0.00  0.00    -0.030 A 
HETATM   20  C   UNL     1      -2.628  12.845  27.623  0.00  0.00     0.037 A 
HETATM   21  C   UNL     1      -2.195  11.522  27.453  0.00  0.00     0.066 A 
HETATM   22  C   UNL     1      -1.497  11.135  26.318  0.00  0.00     0.046 A 
BRANCH  21  23
HETATM   23  O   UNL     1      -2.446  10.562  28.390  0.00  0.00    -0.361 OA
HETATM   24  H   UNL     1      -3.397  10.551  28.580  0.00  0.00     0.217 HD
ENDBRANCH  21  23
ENDBRANCH   9  12
BRANCH   7  25
HETATM   25  N   UNL     1       2.640  17.193  21.155  0.00  0.00    -0.271 NA
HETATM   26  H   UNL     1       2.496  18.191  21.062  0.00  0.00     0.127 HD
HETATM   27  H   UNL     1       3.166  16.879  21.958  0.00  0.00     0.127 HD
ENDBRANCH   7  25
TORSDOF 3
ENDMDL
