MODEL 1
REMARK VINA RESULT:    -8.218      0.000      0.000
REMARK INTER + INTRA:         -13.472
REMARK INTER:                 -10.753
REMARK INTRA:                  -2.719
REMARK UNBOUND:                -2.611
REMARK  6 active torsions:
REMARK  status: ('A' for Active; 'I' for Inactive)
REMARK    1  A    between atoms: C_7  and  C_8 
REMARK    2  A    between atoms: C_8  and  N_9 
REMARK       I    between atoms: N_9  and  C_11 
REMARK    3  A    between atoms: C_11  and  C_13 
REMARK    4  A    between atoms: C_15  and  O_16 
REMARK    5  A    between atoms: C_23  and  C_24 
REMARK    6  A    between atoms: C_24  and  C_25 
ROOT
HETATM    1  C   UNL     1       5.397  13.104  22.104  0.00  0.00     0.066 C 
HETATM    2  C   UNL     1       6.629  13.804  22.243  0.00  0.00     0.035 C 
HETATM    3  C   UNL     1       5.337  12.120  21.116  0.00  0.00     0.083 C 
HETATM    4  C   UNL     1       6.463  11.672  20.413  0.00  0.00     0.069 C 
HETATM    5  C   UNL     1       7.647  12.374  20.599  0.00  0.00     0.065 A 
HETATM    6  C   UNL     1       7.751  13.469  21.446  0.00  0.00     0.020 A 
HETATM    7  N   UNL     1       8.872  12.242  20.010  0.00  0.00    -0.277 N 
HETATM    8  H   UNL     1       9.163  11.533  19.346  0.00  0.00     0.189 HD
HETATM    9  N   UNL     1       9.719  13.240  20.284  0.00  0.00    -0.178 NA
HETATM   10  C   UNL     1       9.042  14.015  21.151  0.00  0.00     0.071 A 
ENDROOT
BRANCH   1  11
HETATM   11  C   UNL     1       4.264  13.588  22.974  0.00  0.00     0.256 C 
HETATM   12  N   UNL     1       3.907  13.041  24.219  0.00  0.00    -0.348 N 
HETATM   13  C   UNL     1       3.009  13.848  25.039  0.00  0.00     0.153 C 
HETATM   14  O   UNL     1       3.677  14.598  22.561  0.00  0.00    -0.267 OA
BRANCH  12  15
HETATM   15  C   UNL     1       4.410  11.823  24.852  0.00  0.00     0.164 C 
BRANCH  15  16
HETATM   16  C   UNL     1       5.932  11.678  24.904  0.00  0.00    -0.040 A 
HETATM   17  C   UNL     1       6.660  12.667  25.585  0.00  0.00     0.010 A 
HETATM   18  C   UNL     1       8.050  12.745  25.466  0.00  0.00     0.024 A 
HETATM   19  C   UNL     1       8.728  11.822  24.674  0.00  0.00     0.034 A 
HETATM   20 CL   UNL     1      10.422  12.000  24.420  0.00  0.00    -0.084 Cl
HETATM   21  C   UNL     1       8.040  10.783  24.052  0.00  0.00     0.024 A 
HETATM   22  C   UNL     1       6.647  10.703  24.174  0.00  0.00     0.010 A 
ENDBRANCH  15  16
ENDBRANCH  12  15
ENDBRANCH   1  11
BRANCH   3  23
HETATM   23  O   UNL     1       4.174  11.573  20.670  0.00  0.00    -0.360 OA
HETATM   24  H   UNL     1       4.238  11.543  19.697  0.00  0.00     0.217 HD
ENDBRANCH   3  23
BRANCH  10  25
HETATM   25  C   UNL     1       9.575  15.369  21.486  0.00  0.00     0.100 C 
BRANCH  25  26
HETATM   26  C   UNL     1      10.425  15.281  22.726  0.00  0.00    -0.052 A 
HETATM   27  C   UNL     1      11.792  14.970  22.638  0.00  0.00     0.007 A 
HETATM   28  C   UNL     1      12.607  15.025  23.770  0.00  0.00     0.001 A 
HETATM   29  C   UNL     1      12.064  15.378  25.003  0.00  0.00     0.000 A 
HETATM   30  C   UNL     1      10.702  15.655  25.110  0.00  0.00     0.001 A 
HETATM   31  C   UNL     1       9.885  15.604  23.979  0.00  0.00     0.007 A 
ENDBRANCH  25  26
ENDBRANCH  10  25
TORSDOF 6
ENDMDL
MODEL 2
REMARK VINA RESULT:    -8.215      2.370      3.730
REMARK INTER + INTRA:         -13.467
REMARK INTER:                 -10.749
REMARK INTRA:                  -2.718
REMARK UNBOUND:                -2.611
REMARK  6 active torsions:
REMARK  status: ('A' for Active; 'I' for Inactive)
REMARK    1  A    between atoms: C_7  and  C_8 
REMARK    2  A    between atoms: C_8  and  N_9 
REMARK       I    between atoms: N_9  and  C_11 
REMARK    3  A    between atoms: C_11  and  C_13 
REMARK    4  A    between atoms: C_15  and  O_16 
REMARK    5  A    between atoms: C_23  and  C_24 
REMARK    6  A    between atoms: C_24  and  C_25 
ROOT
HETATM    1  C   UNL     1       6.536  11.190  24.367  0.00  0.00     0.066 C 
HETATM    2  C   UNL     1       7.826  11.783  24.484  0.00  0.00     0.035 C 
HETATM    3  C   UNL     1       6.476   9.912  23.808  0.00  0.00     0.083 C 
HETATM    4  C   UNL     1       7.613   9.136  23.547  0.00  0.00     0.069 C 
HETATM    5  C   UNL     1       8.849   9.753  23.696  0.00  0.00     0.065 A 
HETATM    6  C   UNL     1       8.990  11.075  24.096  0.00  0.00     0.020 A 
HETATM    7  N   UNL     1      10.114   9.302  23.446  0.00  0.00    -0.277 N 
HETATM    8  H   UNL     1      10.389   8.372  23.152  0.00  0.00     0.189 HD
HETATM    9  N   UNL     1      11.051  10.254  23.502  0.00  0.00    -0.178 NA
HETATM   10  C   UNL     1      10.379  11.355  23.883  0.00  0.00     0.071 A 
ENDROOT
BRANCH   1  11
HETATM   11  C   UNL     1       5.373  12.063  24.766  0.00  0.00     0.256 C 
HETATM   12  N   UNL     1       4.632  12.876  23.891  0.00  0.00    -0.348 N 
HETATM   13  C   UNL     1       3.363  13.380  24.407  0.00  0.00     0.153 C 
HETATM   14  O   UNL     1       5.026  11.969  25.952  0.00  0.00    -0.267 OA
BRANCH  12  15
HETATM   15  C   UNL     1       4.909  13.189  22.490  0.00  0.00     0.164 C 
BRANCH  15  16
HETATM   16  C   UNL     1       6.170  14.015  22.227  0.00  0.00    -0.040 A 
HETATM   17  C   UNL     1       7.165  13.447  21.415  0.00  0.00     0.010 A 
HETATM   18  C   UNL     1       8.436  14.020  21.332  0.00  0.00     0.024 A 
HETATM   19  C   UNL     1       8.721  15.177  22.053  0.00  0.00     0.034 A 
HETATM   20 CL   UNL     1      10.325  15.805  22.057  0.00  0.00    -0.084 Cl
HETATM   21  C   UNL     1       7.730  15.804  22.804  0.00  0.00     0.024 A 
HETATM   22  C   UNL     1       6.454  15.232  22.884  0.00  0.00     0.010 A 
ENDBRANCH  15  16
ENDBRANCH  12  15
ENDBRANCH   1  11
BRANCH   3  23
HETATM   23  O   UNL     1       5.323   9.338  23.370  0.00  0.00    -0.360 OA
HETATM   24  H   UNL     1       5.472   8.374  23.383  0.00  0.00     0.217 HD
ENDBRANCH   3  23
BRANCH  10  25
HETATM   25  C   UNL     1      11.055  12.684  23.806  0.00  0.00     0.100 C 
BRANCH  25  26
HETATM   26  C   UNL     1      11.100  13.304  25.177  0.00  0.00    -0.052 A 
HETATM   27  C   UNL     1      11.888  12.741  26.195  0.00  0.00     0.007 A 
HETATM   28  C   UNL     1      12.038  13.392  27.421  0.00  0.00     0.001 A 
HETATM   29  C   UNL     1      11.392  14.605  27.648  0.00  0.00     0.000 A 
HETATM   30  C   UNL     1      10.579  15.158  26.659  0.00  0.00     0.001 A 
HETATM   31  C   UNL     1      10.431  14.510  25.432  0.00  0.00     0.007 A 
ENDBRANCH  25  26
ENDBRANCH  10  25
TORSDOF 6
ENDMDL
MODEL 3
REMARK VINA RESULT:    -8.174      2.387      4.583
REMARK INTER + INTRA:         -13.413
REMARK INTER:                 -11.063
REMARK INTRA:                  -2.350
REMARK UNBOUND:                -2.611
REMARK  6 active torsions:
REMARK  status: ('A' for Active; 'I' for Inactive)
REMARK    1  A    between atoms: C_7  and  C_8 
REMARK    2  A    between atoms: C_8  and  N_9 
REMARK       I    between atoms: N_9  and  C_11 
REMARK    3  A    between atoms: C_11  and  C_13 
REMARK    4  A    between atoms: C_15  and  O_16 
REMARK    5  A    between atoms: C_23  and  C_24 
REMARK    6  A    between atoms: C_24  and  C_25 
ROOT
HETATM    1  C   UNL     1       4.109  11.872  21.986  0.00  0.00     0.066 C 
HETATM    2  C   UNL     1       4.314  13.269  22.172  0.00  0.00     0.035 C 
HETATM    3  C   UNL     1       3.420  11.195  22.993  0.00  0.00     0.083 C 
HETATM    4  C   UNL     1       2.772  11.847  24.050  0.00  0.00     0.069 C 
HETATM    5  C   UNL     1       2.987  13.215  24.176  0.00  0.00     0.065 A 
HETATM    6  C   UNL     1       3.791  13.937  23.306  0.00  0.00     0.020 A 
HETATM    7  N   UNL     1       2.573  14.104  25.127  0.00  0.00    -0.277 N 
HETATM    8  H   UNL     1       1.957  13.925  25.911  0.00  0.00     0.189 HD
HETATM    9  N   UNL     1       3.156  15.305  25.038  0.00  0.00    -0.178 NA
HETATM   10  C   UNL     1       3.921  15.217  23.936  0.00  0.00     0.071 A 
ENDROOT
BRANCH   1  11
HETATM   11  C   UNL     1       4.758  11.269  20.765  0.00  0.00     0.256 C 
HETATM   12  N   UNL     1       5.888  10.433  20.777  0.00  0.00    -0.348 N 
HETATM   13  C   UNL     1       6.156   9.702  19.542  0.00  0.00     0.153 C 
HETATM   14  O   UNL     1       4.175  11.489  19.695  0.00  0.00    -0.267 OA
BRANCH  12  15
HETATM   15  C   UNL     1       6.763  10.107  21.902  0.00  0.00     0.164 C 
BRANCH  15  16
HETATM   16  C   UNL     1       7.960  11.039  22.107  0.00  0.00    -0.040 A 
HETATM   17  C   UNL     1       8.310  11.896  21.052  0.00  0.00     0.010 A 
HETATM   18  C   UNL     1       9.523  12.588  21.061  0.00  0.00     0.024 A 
HETATM   19  C   UNL     1      10.396  12.438  22.136  0.00  0.00     0.034 A 
HETATM   20 CL   UNL     1      11.947  13.183  22.084  0.00  0.00    -0.084 Cl
HETATM   21  C   UNL     1      10.039  11.656  23.232  0.00  0.00     0.024 A 
HETATM   22  C   UNL     1       8.820  10.966  23.225  0.00  0.00     0.010 A 
ENDBRANCH  15  16
ENDBRANCH  12  15
ENDBRANCH   1  11
BRANCH   3  23
HETATM   23  O   UNL     1       3.394   9.839  23.105  0.00  0.00    -0.360 OA
HETATM   24  H   UNL     1       3.128   9.642  24.022  0.00  0.00     0.217 HD
ENDBRANCH   3  23
BRANCH  10  25
HETATM   25  C   UNL     1       4.924  16.288  23.658  0.00  0.00     0.100 C 
BRANCH  25  26
HETATM   26  C   UNL     1       6.311  15.746  23.875  0.00  0.00    -0.052 A 
HETATM   27  C   UNL     1       7.261  15.768  22.840  0.00  0.00     0.007 A 
HETATM   28  C   UNL     1       8.584  15.393  23.083  0.00  0.00     0.001 A 
HETATM   29  C   UNL     1       8.969  14.982  24.356  0.00  0.00     0.000 A 
HETATM   30  C   UNL     1       8.029  14.923  25.384  0.00  0.00     0.001 A 
HETATM   31  C   UNL     1       6.706  15.300  25.145  0.00  0.00     0.007 A 
ENDBRANCH  25  26
ENDBRANCH  10  25
TORSDOF 6
ENDMDL
MODEL 4
REMARK VINA RESULT:    -8.071      2.981      6.229
REMARK INTER + INTRA:         -13.277
REMARK INTER:                 -11.510
REMARK INTRA:                  -1.768
REMARK UNBOUND:                -2.611
REMARK  6 active torsions:
REMARK  status: ('A' for Active; 'I' for Inactive)
REMARK    1  A    between atoms: C_7  and  C_8 
REMARK    2  A    between atoms: C_8  and  N_9 
REMARK       I    between atoms: N_9  and  C_11 
REMARK    3  A    between atoms: C_11  and  C_13 
REMARK    4  A    between atoms: C_15  and  O_16 
REMARK    5  A    between atoms: C_23  and  C_24 
REMARK    6  A    between atoms: C_24  and  C_25 
ROOT
HETATM    1  C   UNL     1       5.068  12.496  22.900  0.00  0.00     0.066 C 
HETATM    2  C   UNL     1       4.706  12.377  21.527  0.00  0.00     0.035 C 
HETATM    3  C   UNL     1       6.342  12.055  23.258  0.00  0.00     0.083 C 
HETATM    4  C   UNL     1       7.320  11.695  22.320  0.00  0.00     0.069 C 
HETATM    5  C   UNL     1       6.923  11.615  20.991  0.00  0.00     0.065 A 
HETATM    6  C   UNL     1       5.627  11.883  20.571  0.00  0.00     0.020 A 
HETATM    7  N   UNL     1       7.602  11.220  19.874  0.00  0.00    -0.277 N 
HETATM    8  H   UNL     1       8.580  10.965  19.806  0.00  0.00     0.189 HD
HETATM    9  N   UNL     1       6.829  11.065  18.794  0.00  0.00    -0.178 NA
HETATM   10  C   UNL     1       5.608  11.450  19.206  0.00  0.00     0.071 A 
ENDROOT
BRANCH   1  11
HETATM   11  C   UNL     1       3.983  12.988  23.825  0.00  0.00     0.256 C 
HETATM   12  N   UNL     1       3.677  14.338  24.070  0.00  0.00    -0.348 N 
HETATM   13  C   UNL     1       2.400  14.595  24.730  0.00  0.00     0.153 C 
HETATM   14  O   UNL     1       3.278  12.102  24.329  0.00  0.00    -0.267 OA
BRANCH  12  15
HETATM   15  C   UNL     1       4.414  15.527  23.645  0.00  0.00     0.164 C 
BRANCH  15  16
HETATM   16  C   UNL     1       5.909  15.536  23.970  0.00  0.00    -0.040 A 
HETATM   17  C   UNL     1       6.810  15.656  22.899  0.00  0.00     0.010 A 
HETATM   18  C   UNL     1       8.175  15.423  23.081  0.00  0.00     0.024 A 
HETATM   19  C   UNL     1       8.656  15.078  24.342  0.00  0.00     0.034 A 
HETATM   20 CL   UNL     1      10.314  14.659  24.536  0.00  0.00    -0.084 Cl
HETATM   21  C   UNL     1       7.796  15.030  25.436  0.00  0.00     0.024 A 
HETATM   22  C   UNL     1       6.428  15.268  25.255  0.00  0.00     0.010 A 
ENDBRANCH  15  16
ENDBRANCH  12  15
ENDBRANCH   1  11
BRANCH   3  23
HETATM   23  O   UNL     1       6.728  11.836  24.544  0.00  0.00    -0.360 OA
HETATM   24  H   UNL     1       6.358  12.567  25.072  0.00  0.00     0.217 HD
ENDBRANCH   3  23
BRANCH  10  25
HETATM   25  C   UNL     1       4.424  11.170  18.339  0.00  0.00     0.100 C 
BRANCH  25  26
HETATM   26  C   UNL     1       4.438   9.724  17.922  0.00  0.00    -0.052 A 
HETATM   27  C   UNL     1       4.429   8.700  18.884  0.00  0.00     0.007 A 
HETATM   28  C   UNL     1       4.302   7.364  18.497  0.00  0.00     0.001 A 
HETATM   29  C   UNL     1       4.196   7.037  17.148  0.00  0.00     0.000 A 
HETATM   30  C   UNL     1       4.239   8.041  16.182  0.00  0.00     0.001 A 
HETATM   31  C   UNL     1       4.362   9.377  16.565  0.00  0.00     0.007 A 
ENDBRANCH  25  26
ENDBRANCH  10  25
TORSDOF 6
ENDMDL
MODEL 5
REMARK VINA RESULT:    -8.067      1.771      2.398
REMARK INTER + INTRA:         -13.271
REMARK INTER:                 -10.824
REMARK INTRA:                  -2.448
REMARK UNBOUND:                -2.611
REMARK  6 active torsions:
REMARK  status: ('A' for Active; 'I' for Inactive)
REMARK    1  A    between atoms: C_7  and  C_8 
REMARK    2  A    between atoms: C_8  and  N_9 
REMARK       I    between atoms: N_9  and  C_11 
REMARK    3  A    between atoms: C_11  and  C_13 
REMARK    4  A    between atoms: C_15  and  O_16 
REMARK    5  A    between atoms: C_23  and  C_24 
REMARK    6  A    between atoms: C_24  and  C_25 
ROOT
HETATM    1  C   UNL     1       5.078  11.861  21.294  0.00  0.00     0.066 C 
HETATM    2  C   UNL     1       5.998  12.878  21.682  0.00  0.00     0.035 C 
HETATM    3  C   UNL     1       5.503  10.967  20.311  0.00  0.00     0.083 C 
HETATM    4  C   UNL     1       6.824  10.909  19.847  0.00  0.00     0.069 C 
HETATM    5  C   UNL     1       7.688  11.911  20.271  0.00  0.00     0.065 A 
HETATM    6  C   UNL     1       7.299  12.933  21.126  0.00  0.00     0.020 A 
HETATM    7  N   UNL     1       8.986  12.177  19.940  0.00  0.00    -0.277 N 
HETATM    8  H   UNL     1       9.595  11.626  19.345  0.00  0.00     0.189 HD
HETATM    9  N   UNL     1       9.430  13.358  20.383  0.00  0.00    -0.178 NA
HETATM   10  C   UNL     1       8.402  13.847  21.099  0.00  0.00     0.071 A 
ENDROOT
BRANCH   1  11
HETATM   11  C   UNL     1       3.709  11.940  21.921  0.00  0.00     0.256 C 
HETATM   12  N   UNL     1       3.270  11.169  23.012  0.00  0.00    -0.348 N 
HETATM   13  C   UNL     1       2.046  11.623  23.665  0.00  0.00     0.153 C 
HETATM   14  O   UNL     1       2.968  12.820  21.460  0.00  0.00    -0.267 OA
BRANCH  12  15
HETATM   15  C   UNL     1       3.943  10.040  23.653  0.00  0.00     0.164 C 
BRANCH  15  16
HETATM   16  C   UNL     1       5.418  10.251  23.998  0.00  0.00    -0.040 A 
HETATM   17  C   UNL     1       5.760  11.396  24.736  0.00  0.00     0.010 A 
HETATM   18  C   UNL     1       7.093  11.789  24.875  0.00  0.00     0.024 A 
HETATM   19  C   UNL     1       8.102  11.031  24.285  0.00  0.00     0.034 A 
HETATM   20 CL   UNL     1       9.730  11.589  24.341  0.00  0.00    -0.084 Cl
HETATM   21  C   UNL     1       7.797   9.849  23.615  0.00  0.00     0.024 A 
HETATM   22  C   UNL     1       6.461   9.452  23.479  0.00  0.00     0.010 A 
ENDBRANCH  15  16
ENDBRANCH  12  15
ENDBRANCH   1  11
BRANCH   3  23
HETATM   23  O   UNL     1       4.662  10.136  19.637  0.00  0.00    -0.360 OA
HETATM   24  H   UNL     1       3.764  10.323  19.969  0.00  0.00     0.217 HD
ENDBRANCH   3  23
BRANCH  10  25
HETATM   25  C   UNL     1       8.435  15.273  21.541  0.00  0.00     0.100 C 
BRANCH  25  26
HETATM   26  C   UNL     1       7.922  15.373  22.952  0.00  0.00    -0.052 A 
HETATM   27  C   UNL     1       6.588  15.729  23.208  0.00  0.00     0.007 A 
HETATM   28  C   UNL     1       6.077  15.686  24.507  0.00  0.00     0.001 A 
HETATM   29  C   UNL     1       6.897  15.300  25.565  0.00  0.00     0.000 A 
HETATM   30  C   UNL     1       8.232  14.976  25.329  0.00  0.00     0.001 A 
HETATM   31  C   UNL     1       8.744  15.015  24.032  0.00  0.00     0.007 A 
ENDBRANCH  25  26
ENDBRANCH  10  25
TORSDOF 6
ENDMDL
MODEL 6
REMARK VINA RESULT:    -7.955      3.241      6.169
REMARK INTER + INTRA:         -13.123
REMARK INTER:                 -10.636
REMARK INTRA:                  -2.488
REMARK UNBOUND:                -2.611
REMARK  6 active torsions:
REMARK  status: ('A' for Active; 'I' for Inactive)
REMARK    1  A    between atoms: C_7  and  C_8 
REMARK    2  A    between atoms: C_8  and  N_9 
REMARK       I    between atoms: N_9  and  C_11 
REMARK    3  A    between atoms: C_11  and  C_13 
REMARK    4  A    between atoms: C_15  and  O_16 
REMARK    5  A    between atoms: C_23  and  C_24 
REMARK    6  A    between atoms: C_24  and  C_25 
ROOT
HETATM    1  C   UNL     1      10.033  11.912  22.662  0.00  0.00     0.066 C 
HETATM    2  C   UNL     1       8.849  12.082  21.888  0.00  0.00     0.035 C 
HETATM    3  C   UNL     1      10.149  10.726  23.388  0.00  0.00     0.083 C 
HETATM    4  C   UNL     1       9.270   9.646  23.236  0.00  0.00     0.069 C 
HETATM    5  C   UNL     1       8.140   9.854  22.453  0.00  0.00     0.065 A 
HETATM    6  C   UNL     1       7.869  11.062  21.825  0.00  0.00     0.020 A 
HETATM    7  N   UNL     1       7.074   9.045  22.183  0.00  0.00    -0.277 N 
HETATM    8  H   UNL     1       6.944   8.082  22.469  0.00  0.00     0.189 HD
HETATM    9  N   UNL     1       6.065   9.665  21.561  0.00  0.00    -0.178 NA
HETATM   10  C   UNL     1       6.527  10.910  21.348  0.00  0.00     0.071 A 
ENDROOT
BRANCH   1  11
HETATM   11  C   UNL     1      10.975  13.090  22.689  0.00  0.00     0.256 C 
HETATM   12  N   UNL     1      11.025  14.066  23.699  0.00  0.00    -0.348 N 
HETATM   13  C   UNL     1      12.207  14.922  23.704  0.00  0.00     0.153 C 
HETATM   14  O   UNL     1      11.806  13.121  21.770  0.00  0.00    -0.267 OA
BRANCH  12  15
HETATM   15  C   UNL     1      10.104  14.261  24.818  0.00  0.00     0.164 C 
BRANCH  15  16
HETATM   16  C   UNL     1       8.782  14.953  24.481  0.00  0.00    -0.040 A 
HETATM   17  C   UNL     1       7.798  15.006  25.482  0.00  0.00     0.010 A 
HETATM   18  C   UNL     1       6.489  15.390  25.182  0.00  0.00     0.024 A 
HETATM   19  C   UNL     1       6.153  15.738  23.876  0.00  0.00     0.034 A 
HETATM   20 CL   UNL     1       4.513  16.080  23.481  0.00  0.00    -0.084 Cl
HETATM   21  C   UNL     1       7.127  15.771  22.881  0.00  0.00     0.024 A 
HETATM   22  C   UNL     1       8.441  15.390  23.183  0.00  0.00     0.010 A 
ENDBRANCH  15  16
ENDBRANCH  12  15
ENDBRANCH   1  11
BRANCH   3  23
HETATM   23  O   UNL     1      11.060  10.539  24.381  0.00  0.00    -0.360 OA
HETATM   24  H   UNL     1      11.153  11.396  24.837  0.00  0.00     0.217 HD
ENDBRANCH   3  23
BRANCH  10  25
HETATM   25  C   UNL     1       5.577  11.972  20.898  0.00  0.00     0.100 C 
BRANCH  25  26
HETATM   26  C   UNL     1       4.700  12.380  22.051  0.00  0.00    -0.052 A 
HETATM   27  C   UNL     1       3.360  12.745  21.839  0.00  0.00     0.007 A 
HETATM   28  C   UNL     1       2.511  12.989  22.920  0.00  0.00     0.001 A 
HETATM   29  C   UNL     1       2.993  12.882  24.222  0.00  0.00     0.000 A 
HETATM   30  C   UNL     1       4.329  12.554  24.446  0.00  0.00     0.001 A 
HETATM   31  C   UNL     1       5.180  12.307  23.367  0.00  0.00     0.007 A 
ENDBRANCH  25  26
ENDBRANCH  10  25
TORSDOF 6
ENDMDL
MODEL 7
REMARK VINA RESULT:    -7.954      3.122      6.136
REMARK INTER + INTRA:         -13.123
REMARK INTER:                 -10.538
REMARK INTRA:                  -2.584
REMARK UNBOUND:                -2.611
REMARK  6 active torsions:
REMARK  status: ('A' for Active; 'I' for Inactive)
REMARK    1  A    between atoms: C_7  and  C_8 
REMARK    2  A    between atoms: C_8  and  N_9 
REMARK       I    between atoms: N_9  and  C_11 
REMARK    3  A    between atoms: C_11  and  C_13 
REMARK    4  A    between atoms: C_15  and  O_16 
REMARK    5  A    between atoms: C_23  and  C_24 
REMARK    6  A    between atoms: C_24  and  C_25 
ROOT
HETATM    1  C   UNL     1      10.046  11.572  24.375  0.00  0.00     0.066 C 
HETATM    2  C   UNL     1       8.716  12.037  24.589  0.00  0.00     0.035 C 
HETATM    3  C   UNL     1      10.193  10.250  23.955  0.00  0.00     0.083 C 
HETATM    4  C   UNL     1       9.115   9.448  23.558  0.00  0.00     0.069 C 
HETATM    5  C   UNL     1       7.838   9.954  23.767  0.00  0.00     0.065 A 
HETATM    6  C   UNL     1       7.602  11.201  24.330  0.00  0.00     0.020 A 
HETATM    7  N   UNL     1       6.607   9.396  23.568  0.00  0.00    -0.277 N 
HETATM    8  H   UNL     1       6.399   8.495  23.155  0.00  0.00     0.189 HD
HETATM    9  N   UNL     1       5.599  10.105  24.088  0.00  0.00    -0.178 NA
HETATM   10  C   UNL     1       6.191  11.209  24.577  0.00  0.00     0.071 A 
ENDROOT
BRANCH   1  11
HETATM   11  C   UNL     1      11.145  12.540  24.735  0.00  0.00     0.256 C 
HETATM   12  N   UNL     1      11.792  13.404  23.834  0.00  0.00    -0.348 N 
HETATM   13  C   UNL     1      12.583  14.475  24.431  0.00  0.00     0.153 C 
HETATM   14  O   UNL     1      11.417  12.604  25.942  0.00  0.00    -0.267 OA
BRANCH  12  15
HETATM   15  C   UNL     1      11.681  13.442  22.376  0.00  0.00     0.164 C 
BRANCH  15  16
HETATM   16  C   UNL     1      10.261  13.363  21.813  0.00  0.00    -0.040 A 
HETATM   17  C   UNL     1       9.346  14.354  22.204  0.00  0.00     0.010 A 
HETATM   18  C   UNL     1       7.982  14.215  21.939  0.00  0.00     0.024 A 
HETATM   19  C   UNL     1       7.519  13.086  21.268  0.00  0.00     0.034 A 
HETATM   20 CL   UNL     1       5.826  12.851  21.063  0.00  0.00    -0.084 Cl
HETATM   21  C   UNL     1       8.413  12.127  20.800  0.00  0.00     0.024 A 
HETATM   22  C   UNL     1       9.782  12.268  21.061  0.00  0.00     0.010 A 
ENDBRANCH  15  16
ENDBRANCH  12  15
ENDBRANCH   1  11
BRANCH   3  23
HETATM   23  O   UNL     1      11.376   9.580  23.985  0.00  0.00    -0.360 OA
HETATM   24  H   UNL     1      12.032  10.156  23.548  0.00  0.00     0.217 HD
ENDBRANCH   3  23
BRANCH  10  25
HETATM   25  C   UNL     1       5.411  12.122  25.463  0.00  0.00     0.100 C 
BRANCH  25  26
HETATM   26  C   UNL     1       5.254  13.460  24.792  0.00  0.00    -0.052 A 
HETATM   27  C   UNL     1       4.135  13.733  23.987  0.00  0.00     0.007 A 
HETATM   28  C   UNL     1       3.921  15.015  23.479  0.00  0.00     0.001 A 
HETATM   29  C   UNL     1       4.827  16.035  23.758  0.00  0.00     0.000 A 
HETATM   30  C   UNL     1       5.960  15.770  24.527  0.00  0.00     0.001 A 
HETATM   31  C   UNL     1       6.174  14.489  25.039  0.00  0.00     0.007 A 
ENDBRANCH  25  26
ENDBRANCH  10  25
TORSDOF 6
ENDMDL
MODEL 8
REMARK VINA RESULT:    -7.945      2.992      6.266
REMARK INTER + INTRA:         -13.111
REMARK INTER:                 -10.849
REMARK INTRA:                  -2.262
REMARK UNBOUND:                -2.611
REMARK  6 active torsions:
REMARK  status: ('A' for Active; 'I' for Inactive)
REMARK    1  A    between atoms: C_7  and  C_8 
REMARK    2  A    between atoms: C_8  and  N_9 
REMARK       I    between atoms: N_9  and  C_11 
REMARK    3  A    between atoms: C_11  and  C_13 
REMARK    4  A    between atoms: C_15  and  O_16 
REMARK    5  A    between atoms: C_23  and  C_24 
REMARK    6  A    between atoms: C_24  and  C_25 
ROOT
HETATM    1  C   UNL     1       8.380  11.668  22.923  0.00  0.00     0.066 C 
HETATM    2  C   UNL     1       6.990  11.692  23.231  0.00  0.00     0.035 C 
HETATM    3  C   UNL     1       8.728  11.654  21.571  0.00  0.00     0.083 C 
HETATM    4  C   UNL     1       7.801  11.855  20.540  0.00  0.00     0.069 C 
HETATM    5  C   UNL     1       6.458  11.893  20.894  0.00  0.00     0.065 A 
HETATM    6  C   UNL     1       6.017  11.753  22.203  0.00  0.00     0.020 A 
HETATM    7  N   UNL     1       5.330  11.990  20.129  0.00  0.00    -0.277 N 
HETATM    8  H   UNL     1       5.276  12.120  19.126  0.00  0.00     0.189 HD
HETATM    9  N   UNL     1       4.196  11.777  20.804  0.00  0.00    -0.178 NA
HETATM   10  C   UNL     1       4.597  11.611  22.077  0.00  0.00     0.071 A 
ENDROOT
BRANCH   1  11
HETATM   11  C   UNL     1       9.312  11.552  24.103  0.00  0.00     0.256 C 
HETATM   12  N   UNL     1      10.037  12.614  24.671  0.00  0.00    -0.348 N 
HETATM   13  C   UNL     1      10.616  12.361  25.987  0.00  0.00     0.153 C 
HETATM   14  O   UNL     1       9.355  10.433  24.632  0.00  0.00    -0.267 OA
BRANCH  12  15
HETATM   15  C   UNL     1      10.189  13.979  24.171  0.00  0.00     0.164 C 
BRANCH  15  16
HETATM   16  C   UNL     1       8.895  14.783  24.022  0.00  0.00    -0.040 A 
HETATM   17  C   UNL     1       8.054  14.879  25.142  0.00  0.00     0.010 A 
HETATM   18  C   UNL     1       6.753  15.374  25.022  0.00  0.00     0.024 A 
HETATM   19  C   UNL     1       6.284  15.790  23.778  0.00  0.00     0.034 A 
HETATM   20 CL   UNL     1       4.640  16.272  23.604  0.00  0.00    -0.084 Cl
HETATM   21  C   UNL     1       7.124  15.779  22.667  0.00  0.00     0.024 A 
HETATM   22  C   UNL     1       8.429  15.287  22.788  0.00  0.00     0.010 A 
ENDBRANCH  15  16
ENDBRANCH  12  15
ENDBRANCH   1  11
BRANCH   3  23
HETATM   23  O   UNL     1       9.974  11.347  21.119  0.00  0.00    -0.360 OA
HETATM   24  H   UNL     1      10.286  12.123  20.617  0.00  0.00     0.217 HD
ENDBRANCH   3  23
BRANCH  10  25
HETATM   25  C   UNL     1       3.625  11.097  23.087  0.00  0.00     0.100 C 
BRANCH  25  26
HETATM   26  C   UNL     1       2.790  12.238  23.605  0.00  0.00    -0.052 A 
HETATM   27  C   UNL     1       3.288  13.101  24.595  0.00  0.00     0.007 A 
HETATM   28  C   UNL     1       2.571  14.237  24.974  0.00  0.00     0.001 A 
HETATM   29  C   UNL     1       1.343  14.516  24.378  0.00  0.00     0.000 A 
HETATM   30  C   UNL     1       0.821  13.649  23.419  0.00  0.00     0.001 A 
HETATM   31  C   UNL     1       1.538  12.515  23.036  0.00  0.00     0.007 A 
ENDBRANCH  25  26
ENDBRANCH  10  25
TORSDOF 6
ENDMDL
MODEL 9
REMARK VINA RESULT:    -7.854      3.214      5.995
REMARK INTER + INTRA:         -12.991
REMARK INTER:                 -10.380
REMARK INTRA:                  -2.611
REMARK UNBOUND:                -2.611
REMARK  6 active torsions:
REMARK  status: ('A' for Active; 'I' for Inactive)
REMARK    1  A    between atoms: C_7  and  C_8 
REMARK    2  A    between atoms: C_8  and  N_9 
REMARK       I    between atoms: N_9  and  C_11 
REMARK    3  A    between atoms: C_11  and  C_13 
REMARK    4  A    between atoms: C_15  and  O_16 
REMARK    5  A    between atoms: C_23  and  C_24 
REMARK    6  A    between atoms: C_24  and  C_25 
ROOT
HETATM    1  C   UNL     1      10.134  12.418  22.796  0.00  0.00     0.066 C 
HETATM    2  C   UNL     1       8.802  11.920  22.864  0.00  0.00     0.035 C 
HETATM    3  C   UNL     1      10.689  12.565  21.524  0.00  0.00     0.083 C 
HETATM    4  C   UNL     1       9.945  12.434  20.344  0.00  0.00     0.069 C 
HETATM    5  C   UNL     1       8.643  11.965  20.465  0.00  0.00     0.065 A 
HETATM    6  C   UNL     1       8.067  11.642  21.686  0.00  0.00     0.020 A 
HETATM    7  N   UNL     1       7.708  11.656  19.518  0.00  0.00    -0.277 N 
HETATM    8  H   UNL     1       7.783  11.781  18.515  0.00  0.00     0.189 HD
HETATM    9  N   UNL     1       6.634  11.023  20.001  0.00  0.00    -0.178 NA
HETATM   10  C   UNL     1       6.843  10.988  21.330  0.00  0.00     0.071 A 
ENDROOT
BRANCH   1  11
HETATM   11  C   UNL     1      10.826  12.627  24.119  0.00  0.00     0.256 C 
HETATM   12  N   UNL     1      10.776  13.805  24.884  0.00  0.00    -0.348 N 
HETATM   13  C   UNL     1      11.234  13.691  26.265  0.00  0.00     0.153 C 
HETATM   14  O   UNL     1      11.411  11.632  24.571  0.00  0.00    -0.267 OA
BRANCH  12  15
HETATM   15  C   UNL     1      10.215  15.103  24.514  0.00  0.00     0.164 C 
BRANCH  15  16
HETATM   16  C   UNL     1       8.695  15.149  24.341  0.00  0.00    -0.040 A 
HETATM   17  C   UNL     1       8.190  15.483  23.074  0.00  0.00     0.010 A 
HETATM   18  C   UNL     1       6.839  15.789  22.898  0.00  0.00     0.024 A 
HETATM   19  C   UNL     1       5.974  15.751  23.989  0.00  0.00     0.034 A 
HETATM   20 CL   UNL     1       4.339  16.258  23.798  0.00  0.00    -0.084 Cl
HETATM   21  C   UNL     1       6.432  15.346  25.240  0.00  0.00     0.024 A 
HETATM   22  C   UNL     1       7.786  15.035  25.416  0.00  0.00     0.010 A 
ENDBRANCH  15  16
ENDBRANCH  12  15
ENDBRANCH   1  11
BRANCH   3  23
HETATM   23  O   UNL     1      12.018  12.750  21.301  0.00  0.00    -0.360 OA
HETATM   24  H   UNL     1      12.090  13.322  20.514  0.00  0.00     0.217 HD
ENDBRANCH   3  23
BRANCH  10  25
HETATM   25  C   UNL     1       5.969  10.128  22.182  0.00  0.00     0.100 C 
BRANCH  25  26
HETATM   26  C   UNL     1       5.129  10.998  23.078  0.00  0.00    -0.052 A 
HETATM   27  C   UNL     1       5.494  11.215  24.417  0.00  0.00     0.007 A 
HETATM   28  C   UNL     1       4.794  12.130  25.205  0.00  0.00     0.001 A 
HETATM   29  C   UNL     1       3.714  12.828  24.669  0.00  0.00     0.000 A 
HETATM   30  C   UNL     1       3.320  12.597  23.351  0.00  0.00     0.001 A 
HETATM   31  C   UNL     1       4.021  11.686  22.560  0.00  0.00     0.007 A 
ENDBRANCH  25  26
ENDBRANCH  10  25
TORSDOF 6
ENDMDL
