MODEL 1
REMARK VINA RESULT:    -7.964      0.000      0.000
REMARK INTER + INTRA:         -11.540
REMARK INTER:                 -10.607
REMARK INTRA:                  -0.933
REMARK UNBOUND:                -1.016
REMARK  6 active torsions:
REMARK  status: ('A' for Active; 'I' for Inactive)
REMARK    1  A    between atoms: C_2  and  C_3 
REMARK    2  A    between atoms: C_3  and  C_5 
REMARK    3  A    between atoms: C_11  and  O_12 
REMARK    4  A    between atoms: C_13  and  C_14 
REMARK       I    between atoms: C_14  and  N_16 
REMARK    5  A    between atoms: N_16  and  C_18 
REMARK    6  A    between atoms: C_21  and  N_22 
ROOT
HETATM    1  C   UNL     1      10.695  14.379  22.794  0.00  0.00     0.071 A 
HETATM    2  N   UNL     1      11.854  14.821  23.306  0.00  0.00    -0.178 NA
HETATM    3  N   UNL     1      11.577  15.029  24.602  0.00  0.00    -0.277 N 
HETATM    4  H   UNL     1      12.321  15.382  25.197  0.00  0.00     0.189 HD
HETATM    5  C   UNL     1      10.287  14.747  24.954  0.00  0.00     0.065 A 
HETATM    6  C   UNL     1       9.605  14.880  26.166  0.00  0.00     0.069 A 
HETATM    7  C   UNL     1       8.235  14.547  26.183  0.00  0.00     0.083 A 
HETATM    8  C   UNL     1       7.587  14.017  25.061  0.00  0.00     0.066 A 
HETATM    9  C   UNL     1       8.326  13.906  23.853  0.00  0.00     0.035 A 
HETATM   10  C   UNL     1       9.680  14.290  23.791  0.00  0.00     0.020 A 
ENDROOT
BRANCH   8  11
HETATM   11  C   UNL     1       6.128  13.681  24.927  0.00  0.00     0.260 C 
HETATM   12  O   UNL     1       5.823  12.607  25.463  0.00  0.00    -0.267 OA
HETATM   13  N   UNL     1       5.173  14.515  24.291  0.00  0.00    -0.318 N 
HETATM   14  C   UNL     1       5.514  15.694  23.504  0.00  0.00     0.159 C 
BRANCH  13  15
HETATM   15  C   UNL     1       3.770  14.160  24.323  0.00  0.00     0.037 A 
HETATM   16  C   UNL     1       2.946  14.549  25.379  0.00  0.00     0.032 A 
HETATM   17  C   UNL     1       1.596  14.168  25.432  0.00  0.00     0.031 A 
HETATM   18  C   UNL     1       1.001  13.379  24.441  0.00  0.00     0.030 A 
HETATM   19  C   UNL     1       1.815  13.054  23.349  0.00  0.00     0.031 A 
HETATM   20  C   UNL     1       3.169  13.437  23.285  0.00  0.00     0.032 A 
BRANCH  18  21
HETATM   21  N   UNL     1      -0.289  12.912  24.562  0.00  0.00    -0.377 N 
HETATM   22  C   UNL     1      -1.196  12.693  23.427  0.00  0.00     0.149 C 
HETATM   23  C   UNL     1      -1.863  11.313  23.553  0.00  0.00     0.187 C 
HETATM   24  O   UNL     1      -2.529  11.157  24.818  0.00  0.00    -0.388 OA
HETATM   25  C   UNL     1      -1.588  11.308  25.894  0.00  0.00     0.187 C 
HETATM   26  C   UNL     1      -0.919  12.694  25.876  0.00  0.00     0.149 C 
ENDBRANCH  18  21
ENDBRANCH  13  15
ENDBRANCH   8  11
BRANCH   7  27
HETATM   27  O   UNL     1       7.551  14.828  27.335  0.00  0.00    -0.360 OA
HETATM   28  H   UNL     1       6.599  14.873  27.146  0.00  0.00     0.217 HD
ENDBRANCH   7  27
BRANCH   1  29
HETATM   29  C   UNL     1      10.630  14.066  21.318  0.00  0.00     0.036 C 
HETATM   30  C   UNL     1      12.025  14.088  20.682  0.00  0.00     0.016 C 
BRANCH  29  31
HETATM   31  C   UNL     1       9.670  14.989  20.546  0.00  0.00     0.006 C 
HETATM   32  C   UNL     1       8.450  14.263  19.997  0.00  0.00     0.006 C 
ENDBRANCH  29  31
ENDBRANCH   1  29
TORSDOF 6
ENDMDL
MODEL 2
REMARK VINA RESULT:    -7.906      1.777      2.221
REMARK INTER + INTRA:         -11.463
REMARK INTER:                 -10.492
REMARK INTRA:                  -0.972
REMARK UNBOUND:                -1.016
REMARK  6 active torsions:
REMARK  status: ('A' for Active; 'I' for Inactive)
REMARK    1  A    between atoms: C_2  and  C_3 
REMARK    2  A    between atoms: C_3  and  C_5 
REMARK    3  A    between atoms: C_11  and  O_12 
REMARK    4  A    between atoms: C_13  and  C_14 
REMARK       I    between atoms: C_14  and  N_16 
REMARK    5  A    between atoms: N_16  and  C_18 
REMARK    6  A    between atoms: C_21  and  N_22 
ROOT
HETATM    1  C   UNL     1      12.255  12.463  22.369  0.00  0.00     0.071 A 
HETATM    2  N   UNL     1      13.466  12.961  22.665  0.00  0.00    -0.178 NA
HETATM    3  N   UNL     1      13.217  13.874  23.616  0.00  0.00    -0.277 N 
HETATM    4  H   UNL     1      14.003  14.396  23.993  0.00  0.00     0.189 HD
HETATM    5  C   UNL     1      11.897  13.995  23.948  0.00  0.00     0.065 A 
HETATM    6  C   UNL     1      11.236  14.850  24.833  0.00  0.00     0.069 A 
HETATM    7  C   UNL     1       9.832  14.758  24.904  0.00  0.00     0.083 A 
HETATM    8  C   UNL     1       9.116  13.790  24.189  0.00  0.00     0.066 A 
HETATM    9  C   UNL     1       9.836  12.947  23.301  0.00  0.00     0.035 A 
HETATM   10  C   UNL     1      11.233  13.060  23.163  0.00  0.00     0.020 A 
ENDROOT
BRANCH   8  11
HETATM   11  C   UNL     1       7.623  13.624  24.127  0.00  0.00     0.260 C 
HETATM   12  O   UNL     1       7.191  12.790  24.934  0.00  0.00    -0.267 OA
HETATM   13  N   UNL     1       6.773  14.365  23.268  0.00  0.00    -0.318 N 
HETATM   14  C   UNL     1       7.250  15.225  22.191  0.00  0.00     0.159 C 
BRANCH  13  15
HETATM   15  C   UNL     1       5.337  14.219  23.371  0.00  0.00     0.037 A 
HETATM   16  C   UNL     1       4.539  15.236  23.898  0.00  0.00     0.032 A 
HETATM   17  C   UNL     1       3.152  15.078  24.039  0.00  0.00     0.031 A 
HETATM   18  C   UNL     1       2.490  13.902  23.668  0.00  0.00     0.030 A 
HETATM   19  C   UNL     1       3.287  12.916  23.073  0.00  0.00     0.031 A 
HETATM   20  C   UNL     1       4.679  13.068  22.922  0.00  0.00     0.032 A 
BRANCH  18  21
HETATM   21  N   UNL     1       1.150  13.712  23.920  0.00  0.00    -0.377 N 
HETATM   22  C   UNL     1       0.141  13.473  22.878  0.00  0.00     0.149 C 
HETATM   23  C   UNL     1      -0.749  12.286  23.280  0.00  0.00     0.187 C 
HETATM   24  O   UNL     1      -1.342  12.479  24.577  0.00  0.00    -0.388 OA
HETATM   25  C   UNL     1      -0.316  12.636  25.571  0.00  0.00     0.187 C 
HETATM   26  C   UNL     1       0.585  13.847  25.274  0.00  0.00     0.149 C 
ENDBRANCH  18  21
ENDBRANCH  13  15
ENDBRANCH   8  11
BRANCH   7  27
HETATM   27  O   UNL     1       9.193  15.703  25.660  0.00  0.00    -0.360 OA
HETATM   28  H   UNL     1       9.501  15.647  26.580  0.00  0.00     0.217 HD
ENDBRANCH   7  27
BRANCH   1  29
HETATM   29  C   UNL     1      12.151  11.409  21.293  0.00  0.00     0.036 C 
HETATM   30  C   UNL     1      13.416  10.545  21.235  0.00  0.00     0.016 C 
BRANCH  29  31
HETATM   31  C   UNL     1      11.833  11.993  19.904  0.00  0.00     0.006 C 
HETATM   32  C   UNL     1      10.343  12.206  19.669  0.00  0.00     0.006 C 
ENDBRANCH  29  31
ENDBRANCH   1  29
TORSDOF 6
ENDMDL
MODEL 3
REMARK VINA RESULT:    -7.885      2.723      4.023
REMARK INTER + INTRA:         -11.436
REMARK INTER:                 -10.662
REMARK INTRA:                  -0.775
REMARK UNBOUND:                -1.016
REMARK  6 active torsions:
REMARK  status: ('A' for Active; 'I' for Inactive)
REMARK    1  A    between atoms: C_2  and  C_3 
REMARK    2  A    between atoms: C_3  and  C_5 
REMARK    3  A    between atoms: C_11  and  O_12 
REMARK    4  A    between atoms: C_13  and  C_14 
REMARK       I    between atoms: C_14  and  N_16 
REMARK    5  A    between atoms: N_16  and  C_18 
REMARK    6  A    between atoms: C_21  and  N_22 
ROOT
HETATM    1  C   UNL     1      12.309  12.263  20.710  0.00  0.00     0.071 A 
HETATM    2  N   UNL     1      13.543  12.645  20.346  0.00  0.00    -0.178 NA
HETATM    3  N   UNL     1      13.493  13.985  20.389  0.00  0.00    -0.277 N 
HETATM    4  H   UNL     1      14.331  14.501  20.136  0.00  0.00     0.189 HD
HETATM    5  C   UNL     1      12.279  14.490  20.760  0.00  0.00     0.065 A 
HETATM    6  C   UNL     1      11.814  15.804  20.870  0.00  0.00     0.069 A 
HETATM    7  C   UNL     1      10.464  15.990  21.231  0.00  0.00     0.083 A 
HETATM    8  C   UNL     1       9.629  14.914  21.557  0.00  0.00     0.066 A 
HETATM    9  C   UNL     1      10.151  13.600  21.425  0.00  0.00     0.035 A 
HETATM   10  C   UNL     1      11.478  13.382  21.006  0.00  0.00     0.020 A 
ENDROOT
BRANCH   8  11
HETATM   11  C   UNL     1       8.166  14.968  21.894  0.00  0.00     0.260 C 
HETATM   12  O   UNL     1       7.460  15.341  20.947  0.00  0.00    -0.267 OA
HETATM   13  N   UNL     1       7.622  14.596  23.150  0.00  0.00    -0.318 N 
HETATM   14  C   UNL     1       8.423  14.319  24.337  0.00  0.00     0.159 C 
BRANCH  13  15
HETATM   15  C   UNL     1       6.187  14.567  23.335  0.00  0.00     0.037 A 
HETATM   16  C   UNL     1       5.470  15.723  23.647  0.00  0.00     0.032 A 
HETATM   17  C   UNL     1       4.085  15.687  23.870  0.00  0.00     0.031 A 
HETATM   18  C   UNL     1       3.345  14.501  23.798  0.00  0.00     0.030 A 
HETATM   19  C   UNL     1       4.059  13.359  23.412  0.00  0.00     0.031 A 
HETATM   20  C   UNL     1       5.448  13.387  23.180  0.00  0.00     0.032 A 
BRANCH  18  21
HETATM   21  N   UNL     1       2.011  14.456  24.134  0.00  0.00    -0.377 N 
HETATM   22  C   UNL     1       0.912  14.556  23.163  0.00  0.00     0.149 C 
HETATM   23  C   UNL     1      -0.122  13.450  23.433  0.00  0.00     0.187 C 
HETATM   24  O   UNL     1      -0.593  13.480  24.791  0.00  0.00    -0.388 OA
HETATM   25  C   UNL     1       0.507  13.306  25.700  0.00  0.00     0.187 C 
HETATM   26  C   UNL     1       1.562  14.415  25.537  0.00  0.00     0.149 C 
ENDBRANCH  18  21
ENDBRANCH  13  15
ENDBRANCH   8  11
BRANCH   7  27
HETATM   27  O   UNL     1       9.990  17.272  21.185  0.00  0.00    -0.360 OA
HETATM   28  H   UNL     1       9.114  17.281  20.762  0.00  0.00     0.217 HD
ENDBRANCH   7  27
BRANCH   1  29
HETATM   29  C   UNL     1      11.991  10.787  20.745  0.00  0.00     0.036 C 
HETATM   30  C   UNL     1      10.481  10.539  20.652  0.00  0.00     0.016 C 
BRANCH  29  31
HETATM   31  C   UNL     1      12.581  10.070  21.972  0.00  0.00     0.006 C 
HETATM   32  C   UNL     1      12.016  10.576  23.293  0.00  0.00     0.006 C 
ENDBRANCH  29  31
ENDBRANCH   1  29
TORSDOF 6
ENDMDL
MODEL 4
REMARK VINA RESULT:    -7.748      2.213      3.427
REMARK INTER + INTRA:         -11.255
REMARK INTER:                 -10.892
REMARK INTRA:                  -0.363
REMARK UNBOUND:                -1.016
REMARK  6 active torsions:
REMARK  status: ('A' for Active; 'I' for Inactive)
REMARK    1  A    between atoms: C_2  and  C_3 
REMARK    2  A    between atoms: C_3  and  C_5 
REMARK    3  A    between atoms: C_11  and  O_12 
REMARK    4  A    between atoms: C_13  and  C_14 
REMARK       I    between atoms: C_14  and  N_16 
REMARK    5  A    between atoms: N_16  and  C_18 
REMARK    6  A    between atoms: C_21  and  N_22 
ROOT
HETATM    1  C   UNL     1      12.026  14.159  25.622  0.00  0.00     0.071 A 
HETATM    2  N   UNL     1      13.201  14.588  25.133  0.00  0.00    -0.178 NA
HETATM    3  N   UNL     1      12.859  15.305  24.052  0.00  0.00    -0.277 N 
HETATM    4  H   UNL     1      13.605  15.728  23.506  0.00  0.00     0.189 HD
HETATM    5  C   UNL     1      11.515  15.358  23.814  0.00  0.00     0.065 A 
HETATM    6  C   UNL     1      10.776  15.944  22.783  0.00  0.00     0.069 A 
HETATM    7  C   UNL     1       9.378  15.765  22.798  0.00  0.00     0.083 A 
HETATM    8  C   UNL     1       8.727  15.105  23.847  0.00  0.00     0.066 A 
HETATM    9  C   UNL     1       9.525  14.525  24.869  0.00  0.00     0.035 A 
HETATM   10  C   UNL     1      10.930  14.634  24.846  0.00  0.00     0.020 A 
ENDROOT
BRANCH   8  11
HETATM   11  C   UNL     1       7.261  14.793  23.955  0.00  0.00     0.260 C 
HETATM   12  O   UNL     1       6.716  15.340  24.923  0.00  0.00    -0.267 OA
HETATM   13  N   UNL     1       6.546  13.989  23.032  0.00  0.00    -0.318 N 
HETATM   14  C   UNL     1       7.175  13.191  21.985  0.00  0.00     0.159 C 
BRANCH  13  15
HETATM   15  C   UNL     1       5.111  13.849  23.155  0.00  0.00     0.037 A 
HETATM   16  C   UNL     1       4.300  14.938  23.481  0.00  0.00     0.032 A 
HETATM   17  C   UNL     1       2.914  14.794  23.644  0.00  0.00     0.031 A 
HETATM   18  C   UNL     1       2.266  13.563  23.495  0.00  0.00     0.030 A 
HETATM   19  C   UNL     1       3.075  12.492  23.096  0.00  0.00     0.031 A 
HETATM   20  C   UNL     1       4.466  12.628  22.924  0.00  0.00     0.032 A 
BRANCH  18  21
HETATM   21  N   UNL     1       0.926  13.409  23.773  0.00  0.00    -0.377 N 
HETATM   22  C   UNL     1      -0.099  13.123  22.759  0.00  0.00     0.149 C 
HETATM   23  C   UNL     1      -1.001  11.975  23.241  0.00  0.00     0.187 C 
HETATM   24  O   UNL     1      -1.575  12.255  24.530  0.00  0.00    -0.388 OA
HETATM   25  C   UNL     1      -0.536  12.455  25.502  0.00  0.00     0.187 C 
HETATM   26  C   UNL     1       0.379  13.633  25.123  0.00  0.00     0.149 C 
ENDBRANCH  18  21
ENDBRANCH  13  15
ENDBRANCH   8  11
BRANCH   7  27
HETATM   27  O   UNL     1       8.691  16.215  21.703  0.00  0.00    -0.360 OA
HETATM   28  H   UNL     1       9.319  16.530  21.032  0.00  0.00     0.217 HD
ENDBRANCH   7  27
BRANCH   1  29
HETATM   29  C   UNL     1      12.033  13.279  26.849  0.00  0.00     0.036 C 
HETATM   30  C   UNL     1      12.573  14.030  28.071  0.00  0.00     0.016 C 
BRANCH  29  31
HETATM   31  C   UNL     1      12.802  11.962  26.642  0.00  0.00     0.006 C 
HETATM   32  C   UNL     1      12.443  11.253  25.343  0.00  0.00     0.006 C 
ENDBRANCH  29  31
ENDBRANCH   1  29
TORSDOF 6
ENDMDL
MODEL 5
REMARK VINA RESULT:    -7.713      1.561      2.267
REMARK INTER + INTRA:         -11.209
REMARK INTER:                 -10.095
REMARK INTRA:                  -1.114
REMARK UNBOUND:                -1.016
REMARK  6 active torsions:
REMARK  status: ('A' for Active; 'I' for Inactive)
REMARK    1  A    between atoms: C_2  and  C_3 
REMARK    2  A    between atoms: C_3  and  C_5 
REMARK    3  A    between atoms: C_11  and  O_12 
REMARK    4  A    between atoms: C_13  and  C_14 
REMARK       I    between atoms: C_14  and  N_16 
REMARK    5  A    between atoms: N_16  and  C_18 
REMARK    6  A    between atoms: C_21  and  N_22 
ROOT
HETATM    1  C   UNL     1      12.236  14.427  22.356  0.00  0.00     0.071 A 
HETATM    2  N   UNL     1      13.520  14.480  22.745  0.00  0.00    -0.178 NA
HETATM    3  N   UNL     1      13.455  14.430  24.084  0.00  0.00    -0.277 N 
HETATM    4  H   UNL     1      14.327  14.466  24.604  0.00  0.00     0.189 HD
HETATM    5  C   UNL     1      12.185  14.351  24.582  0.00  0.00     0.065 A 
HETATM    6  C   UNL     1      11.702  14.333  25.893  0.00  0.00     0.069 A 
HETATM    7  C   UNL     1      10.304  14.302  26.073  0.00  0.00     0.083 A 
HETATM    8  C   UNL     1       9.420  14.202  24.992  0.00  0.00     0.066 A 
HETATM    9  C   UNL     1       9.964  14.227  23.680  0.00  0.00     0.035 A 
HETATM   10  C   UNL     1      11.354  14.321  23.470  0.00  0.00     0.020 A 
ENDROOT
BRANCH   8  11
HETATM   11  C   UNL     1       7.918  14.223  25.040  0.00  0.00     0.260 C 
HETATM   12  O   UNL     1       7.458  15.300  25.442  0.00  0.00    -0.267 OA
HETATM   13  N   UNL     1       7.092  13.145  24.633  0.00  0.00    -0.318 N 
HETATM   14  C   UNL     1       7.587  11.809  24.319  0.00  0.00     0.159 C 
BRANCH  13  15
HETATM   15  C   UNL     1       5.654  13.309  24.601  0.00  0.00     0.037 A 
HETATM   16  C   UNL     1       4.863  13.005  25.710  0.00  0.00     0.032 A 
HETATM   17  C   UNL     1       3.466  13.122  25.666  0.00  0.00     0.031 A 
HETATM   18  C   UNL     1       2.785  13.542  24.517  0.00  0.00     0.030 A 
HETATM   19  C   UNL     1       3.590  13.914  23.433  0.00  0.00     0.031 A 
HETATM   20  C   UNL     1       4.994  13.806  23.471  0.00  0.00     0.032 A 
BRANCH  18  21
HETATM   21  N   UNL     1       1.410  13.539  24.446  0.00  0.00    -0.377 N 
HETATM   22  C   UNL     1       0.650  13.487  23.189  0.00  0.00     0.149 C 
HETATM   23  C   UNL     1      -0.458  12.427  23.296  0.00  0.00     0.187 C 
HETATM   24  O   UNL     1      -1.307  12.655  24.435  0.00  0.00    -0.388 OA
HETATM   25  C   UNL     1      -0.530  12.625  25.644  0.00  0.00     0.187 C 
HETATM   26  C   UNL     1       0.567  13.704  25.643  0.00  0.00     0.149 C 
ENDBRANCH  18  21
ENDBRANCH  13  15
ENDBRANCH   8  11
BRANCH   7  27
HETATM   27  O   UNL     1       9.848  14.439  27.356  0.00  0.00    -0.360 OA
HETATM   28  H   UNL     1      10.252  15.224  27.763  0.00  0.00     0.217 HD
ENDBRANCH   7  27
BRANCH   1  29
HETATM   29  C   UNL     1      11.926  14.494  20.880  0.00  0.00     0.036 C 
HETATM   30  C   UNL     1      11.054  15.710  20.547  0.00  0.00     0.016 C 
BRANCH  29  31
HETATM   31  C   UNL     1      11.282  13.204  20.339  0.00  0.00     0.006 C 
HETATM   32  C   UNL     1      12.251  12.031  20.270  0.00  0.00     0.006 C 
ENDBRANCH  29  31
ENDBRANCH   1  29
TORSDOF 6
ENDMDL
MODEL 6
REMARK VINA RESULT:    -7.679      2.514      9.617
REMARK INTER + INTRA:         -11.164
REMARK INTER:                 -10.164
REMARK INTRA:                  -1.001
REMARK UNBOUND:                -1.016
REMARK  6 active torsions:
REMARK  status: ('A' for Active; 'I' for Inactive)
REMARK    1  A    between atoms: C_2  and  C_3 
REMARK    2  A    between atoms: C_3  and  C_5 
REMARK    3  A    between atoms: C_11  and  O_12 
REMARK    4  A    between atoms: C_13  and  C_14 
REMARK       I    between atoms: C_14  and  N_16 
REMARK    5  A    between atoms: N_16  and  C_18 
REMARK    6  A    between atoms: C_21  and  N_22 
ROOT
HETATM    1  C   UNL     1      -0.460  12.483  25.574  0.00  0.00     0.071 A 
HETATM    2  N   UNL     1      -1.240  12.719  26.641  0.00  0.00    -0.178 NA
HETATM    3  N   UNL     1      -0.592  13.685  27.309  0.00  0.00    -0.277 N 
HETATM    4  H   UNL     1      -1.002  14.023  28.175  0.00  0.00     0.189 HD
HETATM    5  C   UNL     1       0.577  14.085  26.725  0.00  0.00     0.065 A 
HETATM    6  C   UNL     1       1.548  15.007  27.126  0.00  0.00     0.069 A 
HETATM    7  C   UNL     1       2.688  15.150  26.310  0.00  0.00     0.083 A 
HETATM    8  C   UNL     1       2.819  14.468  25.094  0.00  0.00     0.066 A 
HETATM    9  C   UNL     1       1.805  13.541  24.735  0.00  0.00     0.035 A 
HETATM   10  C   UNL     1       0.685  13.331  25.563  0.00  0.00     0.020 A 
ENDROOT
BRANCH   8  11
HETATM   11  C   UNL     1       4.002  14.482  24.166  0.00  0.00     0.260 C 
HETATM   12  O   UNL     1       3.946  15.384  23.319  0.00  0.00    -0.267 OA
HETATM   13  N   UNL     1       5.099  13.589  24.259  0.00  0.00    -0.318 N 
HETATM   14  C   UNL     1       5.125  12.415  25.123  0.00  0.00     0.159 C 
BRANCH  13  15
HETATM   15  C   UNL     1       6.247  13.764  23.395  0.00  0.00     0.037 A 
HETATM   16  C   UNL     1       6.340  13.105  22.168  0.00  0.00     0.032 A 
HETATM   17  C   UNL     1       7.472  13.240  21.349  0.00  0.00     0.031 A 
HETATM   18  C   UNL     1       8.569  14.030  21.712  0.00  0.00     0.030 A 
HETATM   19  C   UNL     1       8.437  14.744  22.910  0.00  0.00     0.031 A 
HETATM   20  C   UNL     1       7.301  14.620  23.734  0.00  0.00     0.032 A 
BRANCH  18  21
HETATM   21  N   UNL     1       9.722  14.060  20.960  0.00  0.00    -0.377 N 
HETATM   22  C   UNL     1      10.547  15.261  20.766  0.00  0.00     0.149 C 
HETATM   23  C   UNL     1      12.028  14.917  21.001  0.00  0.00     0.187 C 
HETATM   24  O   UNL     1      12.458  13.821  20.175  0.00  0.00    -0.388 OA
HETATM   25  C   UNL     1      11.670  12.652  20.453  0.00  0.00     0.187 C 
HETATM   26  C   UNL     1      10.175  12.895  20.180  0.00  0.00     0.149 C 
ENDBRANCH  18  21
ENDBRANCH  13  15
ENDBRANCH   8  11
BRANCH   7  27
HETATM   27  O   UNL     1       3.693  15.941  26.795  0.00  0.00    -0.360 OA
HETATM   28  H   UNL     1       3.315  16.755  27.170  0.00  0.00     0.217 HD
ENDBRANCH   7  27
BRANCH   1  29
HETATM   29  C   UNL     1      -0.878  11.409  24.598  0.00  0.00     0.036 C 
HETATM   30  C   UNL     1       0.128  10.252  24.578  0.00  0.00     0.016 C 
BRANCH  29  31
HETATM   31  C   UNL     1      -1.112  11.944  23.174  0.00  0.00     0.006 C 
HETATM   32  C   UNL     1      -2.559  12.342  22.913  0.00  0.00     0.006 C 
ENDBRANCH  29  31
ENDBRANCH   1  29
TORSDOF 6
ENDMDL
MODEL 7
REMARK VINA RESULT:    -7.672      2.248      2.888
REMARK INTER + INTRA:         -11.155
REMARK INTER:                 -10.240
REMARK INTRA:                  -0.914
REMARK UNBOUND:                -1.016
REMARK  6 active torsions:
REMARK  status: ('A' for Active; 'I' for Inactive)
REMARK    1  A    between atoms: C_2  and  C_3 
REMARK    2  A    between atoms: C_3  and  C_5 
REMARK    3  A    between atoms: C_11  and  O_12 
REMARK    4  A    between atoms: C_13  and  C_14 
REMARK       I    between atoms: C_14  and  N_16 
REMARK    5  A    between atoms: N_16  and  C_18 
REMARK    6  A    between atoms: C_21  and  N_22 
ROOT
HETATM    1  C   UNL     1      10.981  12.332  23.643  0.00  0.00     0.071 A 
HETATM    2  N   UNL     1      12.152  12.897  23.308  0.00  0.00    -0.178 NA
HETATM    3  N   UNL     1      11.799  14.056  22.732  0.00  0.00    -0.277 N 
HETATM    4  H   UNL     1      12.539  14.659  22.384  0.00  0.00     0.189 HD
HETATM    5  C   UNL     1      10.450  14.267  22.674  0.00  0.00     0.065 A 
HETATM    6  C   UNL     1       9.696  15.303  22.116  0.00  0.00     0.069 A 
HETATM    7  C   UNL     1       8.292  15.192  22.176  0.00  0.00     0.083 A 
HETATM    8  C   UNL     1       7.659  14.136  22.843  0.00  0.00     0.066 A 
HETATM    9  C   UNL     1       8.473  13.108  23.389  0.00  0.00     0.035 A 
HETATM   10  C   UNL     1       9.877  13.161  23.289  0.00  0.00     0.020 A 
ENDROOT
BRANCH   8  11
HETATM   11  C   UNL     1       6.183  13.867  22.926  0.00  0.00     0.260 C 
HETATM   12  O   UNL     1       5.762  13.164  21.997  0.00  0.00    -0.267 OA
HETATM   13  N   UNL     1       5.346  14.327  23.974  0.00  0.00    -0.318 N 
HETATM   14  C   UNL     1       5.761  15.292  24.987  0.00  0.00     0.159 C 
BRANCH  13  15
HETATM   15  C   UNL     1       3.961  13.910  24.028  0.00  0.00     0.037 A 
HETATM   16  C   UNL     1       2.925  14.788  23.708  0.00  0.00     0.032 A 
HETATM   17  C   UNL     1       1.580  14.398  23.802  0.00  0.00     0.031 A 
HETATM   18  C   UNL     1       1.199  13.119  24.223  0.00  0.00     0.030 A 
HETATM   19  C   UNL     1       2.245  12.222  24.473  0.00  0.00     0.031 A 
HETATM   20  C   UNL     1       3.598  12.603  24.375  0.00  0.00     0.032 A 
BRANCH  18  21
HETATM   21  N   UNL     1      -0.121  12.786  24.427  0.00  0.00    -0.377 N 
HETATM   22  C   UNL     1      -1.121  12.688  23.354  0.00  0.00     0.149 C 
HETATM   23  C   UNL     1      -1.919  11.382  23.505  0.00  0.00     0.187 C 
HETATM   24  O   UNL     1      -2.510  11.266  24.811  0.00  0.00    -0.388 OA
HETATM   25  C   UNL     1      -1.488  11.294  25.821  0.00  0.00     0.187 C 
HETATM   26  C   UNL     1      -0.680  12.603  25.778  0.00  0.00     0.149 C 
ENDBRANCH  18  21
ENDBRANCH  13  15
ENDBRANCH   8  11
BRANCH   7  27
HETATM   27  O   UNL     1       7.574  16.136  21.493  0.00  0.00    -0.360 OA
HETATM   28  H   UNL     1       7.604  15.943  20.541  0.00  0.00     0.217 HD
ENDBRANCH   7  27
BRANCH   1  29
HETATM   29  C   UNL     1      10.997  10.972  24.300  0.00  0.00     0.036 C 
HETATM   30  C   UNL     1      12.395  10.345  24.250  0.00  0.00     0.016 C 
BRANCH  29  31
HETATM   31  C   UNL     1       9.951  10.006  23.716  0.00  0.00     0.006 C 
HETATM   32  C   UNL     1       8.956   9.498  24.751  0.00  0.00     0.006 C 
ENDBRANCH  29  31
ENDBRANCH   1  29
TORSDOF 6
ENDMDL
MODEL 8
REMARK VINA RESULT:    -7.651      2.194      3.642
REMARK INTER + INTRA:         -11.127
REMARK INTER:                 -10.651
REMARK INTRA:                  -0.476
REMARK UNBOUND:                -1.016
REMARK  6 active torsions:
REMARK  status: ('A' for Active; 'I' for Inactive)
REMARK    1  A    between atoms: C_2  and  C_3 
REMARK    2  A    between atoms: C_3  and  C_5 
REMARK    3  A    between atoms: C_11  and  O_12 
REMARK    4  A    between atoms: C_13  and  C_14 
REMARK       I    between atoms: C_14  and  N_16 
REMARK    5  A    between atoms: N_16  and  C_18 
REMARK    6  A    between atoms: C_21  and  N_22 
ROOT
HETATM    1  C   UNL     1      12.371  14.046  25.282  0.00  0.00     0.071 A 
HETATM    2  N   UNL     1      13.510  14.465  24.709  0.00  0.00    -0.178 NA
HETATM    3  N   UNL     1      13.097  15.215  23.677  0.00  0.00    -0.277 N 
HETATM    4  H   UNL     1      13.804  15.637  23.081  0.00  0.00     0.189 HD
HETATM    5  C   UNL     1      11.738  15.297  23.551  0.00  0.00     0.065 A 
HETATM    6  C   UNL     1      10.931  15.922  22.597  0.00  0.00     0.069 A 
HETATM    7  C   UNL     1       9.535  15.769  22.722  0.00  0.00     0.083 A 
HETATM    8  C   UNL     1       8.958  15.095  23.805  0.00  0.00     0.066 A 
HETATM    9  C   UNL     1       9.825  14.475  24.745  0.00  0.00     0.035 A 
HETATM   10  C   UNL     1      11.225  14.559  24.609  0.00  0.00     0.020 A 
ENDROOT
BRANCH   8  11
HETATM   11  C   UNL     1       7.500  14.807  24.026  0.00  0.00     0.260 C 
HETATM   12  O   UNL     1       7.056  15.307  25.068  0.00  0.00    -0.267 OA
HETATM   13  N   UNL     1       6.687  14.073  23.125  0.00  0.00    -0.318 N 
HETATM   14  C   UNL     1       7.201  13.326  21.983  0.00  0.00     0.159 C 
BRANCH  13  15
HETATM   15  C   UNL     1       5.265  13.956  23.367  0.00  0.00     0.037 A 
HETATM   16  C   UNL     1       4.647  12.710  23.482  0.00  0.00     0.032 A 
HETATM   17  C   UNL     1       3.261  12.595  23.674  0.00  0.00     0.031 A 
HETATM   18  C   UNL     1       2.422  13.712  23.756  0.00  0.00     0.030 A 
HETATM   19  C   UNL     1       3.058  14.959  23.712  0.00  0.00     0.031 A 
HETATM   20  C   UNL     1       4.449  15.083  23.527  0.00  0.00     0.032 A 
BRANCH  18  21
HETATM   21  N   UNL     1       1.052  13.587  23.823  0.00  0.00    -0.377 N 
HETATM   22  C   UNL     1       0.190  13.323  22.662  0.00  0.00     0.149 C 
HETATM   23  C   UNL     1      -0.800  12.194  22.996  0.00  0.00     0.187 C 
HETATM   24  O   UNL     1      -1.560  12.486  24.182  0.00  0.00    -0.388 OA
HETATM   25  C   UNL     1      -0.679  12.665  25.303  0.00  0.00     0.187 C 
HETATM   26  C   UNL     1       0.308  13.823  25.073  0.00  0.00     0.149 C 
ENDBRANCH  18  21
ENDBRANCH  13  15
ENDBRANCH   8  11
BRANCH   7  27
HETATM   27  O   UNL     1       8.771  16.257  21.698  0.00  0.00    -0.360 OA
HETATM   28  H   UNL     1       8.145  16.916  22.044  0.00  0.00     0.217 HD
ENDBRANCH   7  27
BRANCH   1  29
HETATM   29  C   UNL     1      12.460  13.135  26.484  0.00  0.00     0.036 C 
HETATM   30  C   UNL     1      11.526  11.928  26.339  0.00  0.00     0.016 C 
BRANCH  29  31
HETATM   31  C   UNL     1      12.198  13.864  27.814  0.00  0.00     0.006 C 
HETATM   32  C   UNL     1      13.346  14.769  28.241  0.00  0.00     0.006 C 
ENDBRANCH  29  31
ENDBRANCH   1  29
TORSDOF 6
ENDMDL
MODEL 9
REMARK VINA RESULT:    -7.455      2.084      3.189
REMARK INTER + INTRA:         -10.868
REMARK INTER:                  -9.852
REMARK INTRA:                  -1.016
REMARK UNBOUND:                -1.016
REMARK  6 active torsions:
REMARK  status: ('A' for Active; 'I' for Inactive)
REMARK    1  A    between atoms: C_2  and  C_3 
REMARK    2  A    between atoms: C_3  and  C_5 
REMARK    3  A    between atoms: C_11  and  O_12 
REMARK    4  A    between atoms: C_13  and  C_14 
REMARK       I    between atoms: C_14  and  N_16 
REMARK    5  A    between atoms: N_16  and  C_18 
REMARK    6  A    between atoms: C_21  and  N_22 
ROOT
HETATM    1  C   UNL     1      11.041  12.757  23.951  0.00  0.00     0.071 A 
HETATM    2  N   UNL     1      12.171  13.380  23.580  0.00  0.00    -0.178 NA
HETATM    3  N   UNL     1      11.741  14.451  22.896  0.00  0.00    -0.277 N 
HETATM    4  H   UNL     1      12.438  15.077  22.503  0.00  0.00     0.189 HD
HETATM    5  C   UNL     1      10.381  14.549  22.803  0.00  0.00     0.065 A 
HETATM    6  C   UNL     1       9.559  15.467  22.145  0.00  0.00     0.069 A 
HETATM    7  C   UNL     1       8.167  15.252  22.197  0.00  0.00     0.083 A 
HETATM    8  C   UNL     1       7.606  14.214  22.951  0.00  0.00     0.066 A 
HETATM    9  C   UNL     1       8.486  13.307  23.599  0.00  0.00     0.035 A 
HETATM   10  C   UNL     1       9.884  13.461  23.511  0.00  0.00     0.020 A 
ENDROOT
BRANCH   8  11
HETATM   11  C   UNL     1       6.153  13.838  23.042  0.00  0.00     0.260 C 
HETATM   12  O   UNL     1       5.801  13.037  22.166  0.00  0.00    -0.267 OA
HETATM   13  N   UNL     1       5.268  14.310  24.044  0.00  0.00    -0.318 N 
HETATM   14  C   UNL     1       5.592  15.378  24.983  0.00  0.00     0.159 C 
BRANCH  13  15
HETATM   15  C   UNL     1       3.919  13.793  24.118  0.00  0.00     0.037 A 
HETATM   16  C   UNL     1       3.659  12.505  24.588  0.00  0.00     0.032 A 
HETATM   17  C   UNL     1       2.355  11.986  24.619  0.00  0.00     0.031 A 
HETATM   18  C   UNL     1       1.247  12.720  24.180  0.00  0.00     0.030 A 
HETATM   19  C   UNL     1       1.507  14.036  23.779  0.00  0.00     0.031 A 
HETATM   20  C   UNL     1       2.811  14.567  23.751  0.00  0.00     0.032 A 
BRANCH  18  21
HETATM   21  N   UNL     1      -0.009  12.161  24.103  0.00  0.00    -0.377 N 
HETATM   22  C   UNL     1      -0.531  11.171  25.056  0.00  0.00     0.149 C 
HETATM   23  C   UNL     1      -1.948  11.574  25.499  0.00  0.00     0.187 C 
HETATM   24  O   UNL     1      -2.825  11.760  24.374  0.00  0.00    -0.388 OA
HETATM   25  C   UNL     1      -2.310  12.787  23.510  0.00  0.00     0.187 C 
HETATM   26  C   UNL     1      -0.913  12.430  22.971  0.00  0.00     0.149 C 
ENDBRANCH  18  21
ENDBRANCH  13  15
ENDBRANCH   8  11
BRANCH   7  27
HETATM   27  O   UNL     1       7.391  16.071  21.423  0.00  0.00    -0.360 OA
HETATM   28  H   UNL     1       7.681  16.016  20.497  0.00  0.00     0.217 HD
ENDBRANCH   7  27
BRANCH   1  29
HETATM   29  C   UNL     1      11.150  11.468  24.731  0.00  0.00     0.036 C 
HETATM   30  C   UNL     1      10.422  10.323  24.019  0.00  0.00     0.016 C 
BRANCH  29  31
HETATM   31  C   UNL     1      10.662  11.598  26.185  0.00  0.00     0.006 C 
HETATM   32  C   UNL     1      11.687  12.242  27.109  0.00  0.00     0.006 C 
ENDBRANCH  29  31
ENDBRANCH   1  29
TORSDOF 6
ENDMDL
