MODEL 1
REMARK VINA RESULT:    -7.597      0.000      0.000
REMARK INTER + INTRA:         -12.562
REMARK INTER:                 -10.035
REMARK INTRA:                  -2.527
REMARK UNBOUND:                -2.301
REMARK  7 active torsions:
REMARK  status: ('A' for Active; 'I' for Inactive)
REMARK    1  A    between atoms: C_2  and  N_4 
REMARK    2  A    between atoms: N_4  and  S_6 
REMARK    3  A    between atoms: S_6  and  C_9 
REMARK    4  A    between atoms: C_11  and  C_12 
REMARK    5  A    between atoms: N_18  and  C_19 
REMARK    6  A    between atoms: C_26  and  O_27 
REMARK    7  A    between atoms: C_29  and  O_30 
ROOT
HETATM    1  C   UNL     1       6.883  11.235  21.174  0.00  0.00     0.108 A 
HETATM    2  C   UNL     1       7.266  11.864  22.368  0.00  0.00     0.046 A 
HETATM    3  C   UNL     1       8.252  12.853  22.373  0.00  0.00     0.047 A 
HETATM    4  C   UNL     1       8.789  13.263  21.148  0.00  0.00     0.082 A 
HETATM    5  C   UNL     1       8.443  12.614  19.961  0.00  0.00     0.075 A 
HETATM    6  C   UNL     1       7.502  11.585  19.975  0.00  0.00     0.091 A 
ENDROOT
BRANCH   3   7
HETATM    7  C   UNL     1       8.683  13.508  23.630  0.00  0.00     0.172 A 
HETATM    8  N   UNL     1       9.892  13.333  24.095  0.00  0.00    -0.151 NA
HETATM    9  N   UNL     1       9.937  14.121  25.207  0.00  0.00    -0.226 N 
HETATM   10  H   UNL     1      10.736  14.160  25.828  0.00  0.00     0.194 HD
HETATM   11  C   UNL     1       8.704  14.731  25.443  0.00  0.00     0.349 A 
HETATM   12  O   UNL     1       8.432  15.377  26.446  0.00  0.00    -0.245 OA
HETATM   13  N   UNL     1       7.908  14.358  24.382  0.00  0.00    -0.243 N 
BRANCH  13  14
HETATM   14  C   UNL     1       6.537  14.674  24.262  0.00  0.00     0.067 A 
HETATM   15  C   UNL     1       6.167  15.862  23.606  0.00  0.00     0.032 A 
HETATM   16  C   UNL     1       4.859  16.342  23.676  0.00  0.00     0.002 A 
HETATM   17  C   UNL     1       3.899  15.636  24.392  0.00  0.00     0.002 A 
HETATM   18  C   UNL     1       4.228  14.417  24.981  0.00  0.00     0.026 A 
HETATM   19  C   UNL     1       5.535  13.919  24.902  0.00  0.00     0.061 A 
HETATM   20 CL   UNL     1       5.860  12.461  25.773  0.00  0.00    -0.082 Cl
ENDBRANCH  13  14
ENDBRANCH   3   7
BRANCH   4  21
HETATM   21  O   UNL     1       9.651  14.318  21.024  0.00  0.00    -0.360 OA
HETATM   22  H   UNL     1      10.100  14.248  20.152  0.00  0.00     0.217 HD
ENDBRANCH   4  21
BRANCH   1  23
HETATM   23  S   UNL     1       5.569  10.030  21.273  0.00  0.00     0.246 S 
HETATM   24  O   UNL     1       6.190   8.743  21.502  0.00  0.00    -0.206 OA
HETATM   25  O   UNL     1       4.677  10.190  20.143  0.00  0.00    -0.206 OA
BRANCH  23  26
HETATM   26  N   UNL     1       4.733  10.542  22.706  0.00  0.00    -0.207 NA
HETATM   27  C   UNL     1       4.727   9.461  23.739  0.00  0.00     0.130 C 
BRANCH  26  28
HETATM   28  C   UNL     1       3.406  11.257  22.576  0.00  0.00     0.065 C 
HETATM   29  C   UNL     1       2.705  11.352  23.940  0.00  0.00     0.027 C 
HETATM   30  C   UNL     1       3.547  12.693  22.061  0.00  0.00     0.027 C 
ENDBRANCH  26  28
ENDBRANCH  23  26
ENDBRANCH   1  23
BRANCH   6  31
HETATM   31  O   UNL     1       7.154  11.005  18.796  0.00  0.00    -0.359 OA
HETATM   32  H   UNL     1       7.450  10.079  18.775  0.00  0.00     0.217 HD
ENDBRANCH   6  31
TORSDOF 7
ENDMDL
MODEL 2
REMARK VINA RESULT:    -7.395      1.548      2.238
REMARK INTER + INTRA:         -12.290
REMARK INTER:                 -10.302
REMARK INTRA:                  -1.988
REMARK UNBOUND:                -2.301
REMARK  7 active torsions:
REMARK  status: ('A' for Active; 'I' for Inactive)
REMARK    1  A    between atoms: C_2  and  N_4 
REMARK    2  A    between atoms: N_4  and  S_6 
REMARK    3  A    between atoms: S_6  and  C_9 
REMARK    4  A    between atoms: C_11  and  C_12 
REMARK    5  A    between atoms: N_18  and  C_19 
REMARK    6  A    between atoms: C_26  and  O_27 
REMARK    7  A    between atoms: C_29  and  O_30 
ROOT
HETATM    1  C   UNL     1       6.652  11.539  21.079  0.00  0.00     0.108 A 
HETATM    2  C   UNL     1       6.954  12.145  22.308  0.00  0.00     0.046 A 
HETATM    3  C   UNL     1       8.101  12.928  22.459  0.00  0.00     0.047 A 
HETATM    4  C   UNL     1       8.896  13.165  21.333  0.00  0.00     0.082 A 
HETATM    5  C   UNL     1       8.625  12.534  20.118  0.00  0.00     0.075 A 
HETATM    6  C   UNL     1       7.511  11.704  19.994  0.00  0.00     0.091 A 
ENDROOT
BRANCH   3   7
HETATM    7  C   UNL     1       8.444  13.553  23.757  0.00  0.00     0.172 A 
HETATM    8  N   UNL     1       9.630  13.392  24.284  0.00  0.00    -0.151 NA
HETATM    9  N   UNL     1       9.593  14.145  25.420  0.00  0.00    -0.226 N 
HETATM   10  H   UNL     1      10.355  14.184  26.085  0.00  0.00     0.194 HD
HETATM   11  C   UNL     1       8.334  14.719  25.605  0.00  0.00     0.349 A 
HETATM   12  O   UNL     1       7.991  15.325  26.610  0.00  0.00    -0.245 OA
HETATM   13  N   UNL     1       7.607  14.360  24.490  0.00  0.00    -0.243 N 
BRANCH  13  14
HETATM   14  C   UNL     1       6.238  14.647  24.303  0.00  0.00     0.067 A 
HETATM   15  C   UNL     1       5.874  15.867  23.705  0.00  0.00     0.032 A 
HETATM   16  C   UNL     1       4.550  16.307  23.723  0.00  0.00     0.002 A 
HETATM   17  C   UNL     1       3.569  15.528  24.326  0.00  0.00     0.002 A 
HETATM   18  C   UNL     1       3.898  14.280  24.852  0.00  0.00     0.026 A 
HETATM   19  C   UNL     1       5.222  13.823  24.824  0.00  0.00     0.061 A 
HETATM   20 CL   UNL     1       5.536  12.318  25.614  0.00  0.00    -0.082 Cl
ENDBRANCH  13  14
ENDBRANCH   3   7
BRANCH   4  21
HETATM   21  O   UNL     1       9.957  14.030  21.334  0.00  0.00    -0.360 OA
HETATM   22  H   UNL     1      10.504  13.845  22.130  0.00  0.00     0.217 HD
ENDBRANCH   4  21
BRANCH   1  23
HETATM   23  S   UNL     1       5.129  10.612  20.980  0.00  0.00     0.246 S 
HETATM   24  O   UNL     1       4.332  11.216  19.934  0.00  0.00    -0.206 OA
HETATM   25  O   UNL     1       4.561  10.469  22.305  0.00  0.00    -0.206 OA
BRANCH  23  26
HETATM   26  N   UNL     1       5.700   9.057  20.459  0.00  0.00    -0.207 NA
HETATM   27  C   UNL     1       4.894   8.548  19.308  0.00  0.00     0.130 C 
BRANCH  26  28
HETATM   28  C   UNL     1       6.011   7.997  21.492  0.00  0.00     0.065 C 
HETATM   29  C   UNL     1       6.096   6.610  20.836  0.00  0.00     0.027 C 
HETATM   30  C   UNL     1       7.350   8.223  22.200  0.00  0.00     0.027 C 
ENDBRANCH  26  28
ENDBRANCH  23  26
ENDBRANCH   1  23
BRANCH   6  31
HETATM   31  O   UNL     1       7.250  11.141  18.784  0.00  0.00    -0.359 OA
HETATM   32  H   UNL     1       6.531  10.491  18.863  0.00  0.00     0.217 HD
ENDBRANCH   6  31
TORSDOF 7
ENDMDL
MODEL 3
REMARK VINA RESULT:    -7.130      2.543      3.926
REMARK INTER + INTRA:         -11.931
REMARK INTER:                  -9.542
REMARK INTRA:                  -2.390
REMARK UNBOUND:                -2.301
REMARK  7 active torsions:
REMARK  status: ('A' for Active; 'I' for Inactive)
REMARK    1  A    between atoms: C_2  and  N_4 
REMARK    2  A    between atoms: N_4  and  S_6 
REMARK    3  A    between atoms: S_6  and  C_9 
REMARK    4  A    between atoms: C_11  and  C_12 
REMARK    5  A    between atoms: N_18  and  C_19 
REMARK    6  A    between atoms: C_26  and  O_27 
REMARK    7  A    between atoms: C_29  and  O_30 
ROOT
HETATM    1  C   UNL     1       6.506  12.132  20.817  0.00  0.00     0.108 A 
HETATM    2  C   UNL     1       5.633  12.883  21.618  0.00  0.00     0.046 A 
HETATM    3  C   UNL     1       6.118  13.885  22.461  0.00  0.00     0.047 A 
HETATM    4  C   UNL     1       7.485  14.180  22.426  0.00  0.00     0.082 A 
HETATM    5  C   UNL     1       8.365  13.410  21.663  0.00  0.00     0.075 A 
HETATM    6  C   UNL     1       7.878  12.372  20.871  0.00  0.00     0.091 A 
ENDROOT
BRANCH   3   7
HETATM    7  C   UNL     1       5.210  14.670  23.330  0.00  0.00     0.172 A 
HETATM    8  N   UNL     1       5.313  15.972  23.400  0.00  0.00    -0.151 NA
HETATM    9  N   UNL     1       4.297  16.339  24.233  0.00  0.00    -0.226 N 
HETATM   10  H   UNL     1       4.144  17.294  24.533  0.00  0.00     0.194 HD
HETATM   11  C   UNL     1       3.612  15.224  24.716  0.00  0.00     0.349 A 
HETATM   12  O   UNL     1       2.750  15.263  25.583  0.00  0.00    -0.245 OA
HETATM   13  N   UNL     1       4.190  14.143  24.085  0.00  0.00    -0.243 N 
BRANCH  13  14
HETATM   14  C   UNL     1       3.868  12.795  24.352  0.00  0.00     0.067 A 
HETATM   15  C   UNL     1       4.756  12.023  25.122  0.00  0.00     0.032 A 
HETATM   16  C   UNL     1       4.613  10.638  25.206  0.00  0.00     0.002 A 
HETATM   17  C   UNL     1       3.574  10.006  24.533  0.00  0.00     0.002 A 
HETATM   18  C   UNL     1       2.638  10.763  23.831  0.00  0.00     0.026 A 
HETATM   19  C   UNL     1       2.764  12.156  23.754  0.00  0.00     0.061 A 
HETATM   20 CL   UNL     1       1.619  12.982  22.757  0.00  0.00    -0.082 Cl
ENDBRANCH  13  14
ENDBRANCH   3   7
BRANCH   4  21
HETATM   21  O   UNL     1       8.041  15.232  23.100  0.00  0.00    -0.360 OA
HETATM   22  H   UNL     1       8.981  15.315  22.822  0.00  0.00     0.217 HD
ENDBRANCH   4  21
BRANCH   1  23
HETATM   23  S   UNL     1       5.774  10.919  19.729  0.00  0.00     0.246 S 
HETATM   24  O   UNL     1       6.414  11.066  18.439  0.00  0.00    -0.206 OA
HETATM   25  O   UNL     1       4.331  11.001  19.812  0.00  0.00    -0.206 OA
BRANCH  23  26
HETATM   26  N   UNL     1       6.281   9.433  20.470  0.00  0.00    -0.207 NA
HETATM   27  C   UNL     1       5.936   8.260  19.610  0.00  0.00     0.130 C 
BRANCH  26  28
HETATM   28  C   UNL     1       6.004   9.205  21.939  0.00  0.00     0.065 C 
HETATM   29  C   UNL     1       5.316   7.848  22.157  0.00  0.00     0.027 C 
HETATM   30  C   UNL     1       7.275   9.187  22.794  0.00  0.00     0.027 C 
ENDBRANCH  26  28
ENDBRANCH  23  26
ENDBRANCH   1  23
BRANCH   6  31
HETATM   31  O   UNL     1       8.756  11.670  20.105  0.00  0.00    -0.359 OA
HETATM   32  H   UNL     1       8.318  11.347  19.299  0.00  0.00     0.217 HD
ENDBRANCH   6  31
TORSDOF 7
ENDMDL
MODEL 4
REMARK VINA RESULT:    -7.109      2.259      3.311
REMARK INTER + INTRA:         -11.903
REMARK INTER:                  -9.505
REMARK INTRA:                  -2.398
REMARK UNBOUND:                -2.301
REMARK  7 active torsions:
REMARK  status: ('A' for Active; 'I' for Inactive)
REMARK    1  A    between atoms: C_2  and  N_4 
REMARK    2  A    between atoms: N_4  and  S_6 
REMARK    3  A    between atoms: S_6  and  C_9 
REMARK    4  A    between atoms: C_11  and  C_12 
REMARK    5  A    between atoms: N_18  and  C_19 
REMARK    6  A    between atoms: C_26  and  O_27 
REMARK    7  A    between atoms: C_29  and  O_30 
ROOT
HETATM    1  C   UNL     1       6.175   9.804  23.093  0.00  0.00     0.108 A 
HETATM    2  C   UNL     1       6.846  10.878  22.488  0.00  0.00     0.046 A 
HETATM    3  C   UNL     1       8.228  11.028  22.624  0.00  0.00     0.047 A 
HETATM    4  C   UNL     1       8.940  10.035  23.307  0.00  0.00     0.082 A 
HETATM    5  C   UNL     1       8.275   8.987  23.946  0.00  0.00     0.075 A 
HETATM    6  C   UNL     1       6.888   8.881  23.855  0.00  0.00     0.091 A 
ENDROOT
BRANCH   3   7
HETATM    7  C   UNL     1       8.946  12.169  22.011  0.00  0.00     0.172 A 
HETATM    8  N   UNL     1       9.949  11.968  21.197  0.00  0.00    -0.151 NA
HETATM    9  N   UNL     1      10.308  13.222  20.798  0.00  0.00    -0.226 N 
HETATM   10  H   UNL     1      11.102  13.407  20.198  0.00  0.00     0.194 HD
HETATM   11  C   UNL     1       9.539  14.194  21.437  0.00  0.00     0.349 A 
HETATM   12  O   UNL     1       9.745  15.398  21.364  0.00  0.00    -0.245 OA
HETATM   13  N   UNL     1       8.624  13.493  22.192  0.00  0.00    -0.243 N 
BRANCH  13  14
HETATM   14  C   UNL     1       7.702  14.084  23.083  0.00  0.00     0.067 A 
HETATM   15  C   UNL     1       6.530  14.662  22.565  0.00  0.00     0.032 A 
HETATM   16  C   UNL     1       5.716  15.468  23.360  0.00  0.00     0.002 A 
HETATM   17  C   UNL     1       6.055  15.699  24.689  0.00  0.00     0.002 A 
HETATM   18  C   UNL     1       7.169  15.070  25.241  0.00  0.00     0.026 A 
HETATM   19  C   UNL     1       7.983  14.245  24.454  0.00  0.00     0.061 A 
HETATM   20 CL   UNL     1       9.406  13.617  25.209  0.00  0.00    -0.082 Cl
ENDBRANCH  13  14
ENDBRANCH   3   7
BRANCH   4  21
HETATM   21  O   UNL     1      10.306  10.008  23.376  0.00  0.00    -0.360 OA
HETATM   22  H   UNL     1      10.566   9.395  24.100  0.00  0.00     0.217 HD
ENDBRANCH   4  21
BRANCH   1  23
HETATM   23  S   UNL     1       4.418   9.673  22.801  0.00  0.00     0.246 S 
HETATM   24  O   UNL     1       4.062   8.282  22.976  0.00  0.00    -0.206 OA
HETATM   25  O   UNL     1       4.082  10.335  21.558  0.00  0.00    -0.206 OA
BRANCH  23  26
HETATM   26  N   UNL     1       3.776  10.613  24.112  0.00  0.00    -0.207 NA
HETATM   27  C   UNL     1       2.292  10.454  24.210  0.00  0.00     0.130 C 
BRANCH  26  28
HETATM   28  C   UNL     1       4.241  12.040  24.300  0.00  0.00     0.065 C 
HETATM   29  C   UNL     1       3.042  12.999  24.352  0.00  0.00     0.027 C 
HETATM   30  C   UNL     1       5.020  12.250  25.602  0.00  0.00     0.027 C 
ENDBRANCH  26  28
ENDBRANCH  23  26
ENDBRANCH   1  23
BRANCH   6  31
HETATM   31  O   UNL     1       6.276   7.822  24.451  0.00  0.00    -0.359 OA
HETATM   32  H   UNL     1       6.890   7.072  24.520  0.00  0.00     0.217 HD
ENDBRANCH   6  31
TORSDOF 7
ENDMDL
MODEL 5
REMARK VINA RESULT:    -6.777      2.104      5.131
REMARK INTER + INTRA:         -11.455
REMARK INTER:                  -9.028
REMARK INTRA:                  -2.427
REMARK UNBOUND:                -2.301
REMARK  7 active torsions:
REMARK  status: ('A' for Active; 'I' for Inactive)
REMARK    1  A    between atoms: C_2  and  N_4 
REMARK    2  A    between atoms: N_4  and  S_6 
REMARK    3  A    between atoms: S_6  and  C_9 
REMARK    4  A    between atoms: C_11  and  C_12 
REMARK    5  A    between atoms: N_18  and  C_19 
REMARK    6  A    between atoms: C_26  and  O_27 
REMARK    7  A    between atoms: C_29  and  O_30 
ROOT
HETATM    1  C   UNL     1       7.735  11.884  22.399  0.00  0.00     0.108 A 
HETATM    2  C   UNL     1       6.689  11.218  23.056  0.00  0.00     0.046 A 
HETATM    3  C   UNL     1       5.597  10.721  22.343  0.00  0.00     0.047 A 
HETATM    4  C   UNL     1       5.610  10.825  20.948  0.00  0.00     0.082 A 
HETATM    5  C   UNL     1       6.626  11.522  20.291  0.00  0.00     0.075 A 
HETATM    6  C   UNL     1       7.682  12.068  21.019  0.00  0.00     0.091 A 
ENDROOT
BRANCH   3   7
HETATM    7  C   UNL     1       4.474  10.037  23.026  0.00  0.00     0.172 A 
HETATM    8  N   UNL     1       4.401   8.731  23.048  0.00  0.00    -0.151 NA
HETATM    9  N   UNL     1       3.292   8.475  23.800  0.00  0.00    -0.226 N 
HETATM   10  H   UNL     1       2.933   7.541  23.958  0.00  0.00     0.194 HD
HETATM   11  C   UNL     1       2.657   9.657  24.182  0.00  0.00     0.349 A 
HETATM   12  O   UNL     1       1.571   9.709  24.742  0.00  0.00    -0.245 OA
HETATM   13  N   UNL     1       3.463  10.669  23.708  0.00  0.00    -0.243 N 
BRANCH  13  14
HETATM   14  C   UNL     1       3.149  12.044  23.787  0.00  0.00     0.067 A 
HETATM   15  C   UNL     1       2.257  12.593  22.848  0.00  0.00     0.032 A 
HETATM   16  C   UNL     1       2.107  13.975  22.726  0.00  0.00     0.002 A 
HETATM   17  C   UNL     1       2.835  14.827  23.548  0.00  0.00     0.002 A 
HETATM   18  C   UNL     1       3.663  14.299  24.537  0.00  0.00     0.026 A 
HETATM   19  C   UNL     1       3.808  12.912  24.678  0.00  0.00     0.061 A 
HETATM   20 CL   UNL     1       4.953  12.371  25.854  0.00  0.00    -0.082 Cl
ENDBRANCH  13  14
ENDBRANCH   3   7
BRANCH   4  21
HETATM   21  O   UNL     1       4.665  10.248  20.144  0.00  0.00    -0.360 OA
HETATM   22  H   UNL     1       4.052   9.730  20.713  0.00  0.00     0.217 HD
ENDBRANCH   4  21
BRANCH   1  23
HETATM   23  S   UNL     1       9.113  12.423  23.400  0.00  0.00     0.246 S 
HETATM   24  O   UNL     1      10.308  12.254  22.602  0.00  0.00    -0.206 OA
HETATM   25  O   UNL     1       9.042  11.796  24.703  0.00  0.00    -0.206 OA
BRANCH  23  26
HETATM   26  N   UNL     1       8.767  14.114  23.588  0.00  0.00    -0.207 NA
HETATM   27  C   UNL     1       9.865  14.807  24.329  0.00  0.00     0.130 C 
BRANCH  26  28
HETATM   28  C   UNL     1       7.383  14.545  24.021  0.00  0.00     0.065 C 
HETATM   29  C   UNL     1       7.398  15.030  25.479  0.00  0.00     0.027 C 
HETATM   30  C   UNL     1       6.826  15.702  23.187  0.00  0.00     0.027 C 
ENDBRANCH  26  28
ENDBRANCH  23  26
ENDBRANCH   1  23
BRANCH   6  31
HETATM   31  O   UNL     1       8.680  12.701  20.345  0.00  0.00    -0.359 OA
HETATM   32  H   UNL     1       8.388  13.584  20.063  0.00  0.00     0.217 HD
ENDBRANCH   6  31
TORSDOF 7
ENDMDL
MODEL 6
REMARK VINA RESULT:    -6.678      2.084      3.078
REMARK INTER + INTRA:         -11.322
REMARK INTER:                  -9.144
REMARK INTRA:                  -2.178
REMARK UNBOUND:                -2.301
REMARK  7 active torsions:
REMARK  status: ('A' for Active; 'I' for Inactive)
REMARK    1  A    between atoms: C_2  and  N_4 
REMARK    2  A    between atoms: N_4  and  S_6 
REMARK    3  A    between atoms: S_6  and  C_9 
REMARK    4  A    between atoms: C_11  and  C_12 
REMARK    5  A    between atoms: N_18  and  C_19 
REMARK    6  A    between atoms: C_26  and  O_27 
REMARK    7  A    between atoms: C_29  and  O_30 
ROOT
HETATM    1  C   UNL     1       5.428  10.474  22.389  0.00  0.00     0.108 A 
HETATM    2  C   UNL     1       6.510  11.368  22.388  0.00  0.00     0.046 A 
HETATM    3  C   UNL     1       7.247  11.599  21.224  0.00  0.00     0.047 A 
HETATM    4  C   UNL     1       6.828  10.985  20.039  0.00  0.00     0.082 A 
HETATM    5  C   UNL     1       5.779  10.064  20.041  0.00  0.00     0.075 A 
HETATM    6  C   UNL     1       5.089   9.794  21.221  0.00  0.00     0.091 A 
ENDROOT
BRANCH   3   7
HETATM    7  C   UNL     1       8.407  12.522  21.215  0.00  0.00     0.172 A 
HETATM    8  N   UNL     1       9.449  12.276  20.464  0.00  0.00    -0.151 NA
HETATM    9  N   UNL     1      10.266  13.349  20.672  0.00  0.00    -0.226 N 
HETATM   10  H   UNL     1      11.190  13.429  20.266  0.00  0.00     0.194 HD
HETATM   11  C   UNL     1       9.722  14.223  21.614  0.00  0.00     0.349 A 
HETATM   12  O   UNL     1      10.308  15.188  22.082  0.00  0.00    -0.245 OA
HETATM   13  N   UNL     1       8.488  13.693  21.928  0.00  0.00    -0.243 N 
BRANCH  13  14
HETATM   14  C   UNL     1       7.627  14.207  22.921  0.00  0.00     0.067 A 
HETATM   15  C   UNL     1       6.563  15.042  22.534  0.00  0.00     0.032 A 
HETATM   16  C   UNL     1       5.842  15.770  23.481  0.00  0.00     0.002 A 
HETATM   17  C   UNL     1       6.164  15.664  24.829  0.00  0.00     0.002 A 
HETATM   18  C   UNL     1       7.162  14.781  25.238  0.00  0.00     0.026 A 
HETATM   19  C   UNL     1       7.881  14.034  24.295  0.00  0.00     0.061 A 
HETATM   20 CL   UNL     1       9.177  13.065  24.904  0.00  0.00    -0.082 Cl
ENDBRANCH  13  14
ENDBRANCH   3   7
BRANCH   4  21
HETATM   21  O   UNL     1       7.386  11.254  18.819  0.00  0.00    -0.360 OA
HETATM   22  H   UNL     1       8.362  11.307  18.931  0.00  0.00     0.217 HD
ENDBRANCH   4  21
BRANCH   1  23
HETATM   23  S   UNL     1       4.517  10.301  23.915  0.00  0.00     0.246 S 
HETATM   24  O   UNL     1       5.352   9.547  24.825  0.00  0.00    -0.206 OA
HETATM   25  O   UNL     1       3.179   9.827  23.630  0.00  0.00    -0.206 OA
BRANCH  23  26
HETATM   26  N   UNL     1       4.410  11.951  24.447  0.00  0.00    -0.207 NA
HETATM   27  C   UNL     1       4.890  12.092  25.856  0.00  0.00     0.130 C 
BRANCH  26  28
HETATM   28  C   UNL     1       3.155  12.744  24.157  0.00  0.00     0.065 C 
HETATM   29  C   UNL     1       3.049  13.954  25.098  0.00  0.00     0.027 C 
HETATM   30  C   UNL     1       3.114  13.301  22.731  0.00  0.00     0.027 C 
ENDBRANCH  26  28
ENDBRANCH  23  26
ENDBRANCH   1  23
BRANCH   6  31
HETATM   31  O   UNL     1       4.042   8.926  21.179  0.00  0.00    -0.359 OA
HETATM   32  H   UNL     1       3.587   8.988  20.323  0.00  0.00     0.217 HD
ENDBRANCH   6  31
TORSDOF 7
ENDMDL
MODEL 7
REMARK VINA RESULT:    -6.594      2.698      6.523
REMARK INTER + INTRA:         -11.208
REMARK INTER:                  -9.211
REMARK INTRA:                  -1.997
REMARK UNBOUND:                -2.301
REMARK  7 active torsions:
REMARK  status: ('A' for Active; 'I' for Inactive)
REMARK    1  A    between atoms: C_2  and  N_4 
REMARK    2  A    between atoms: N_4  and  S_6 
REMARK    3  A    between atoms: S_6  and  C_9 
REMARK    4  A    between atoms: C_11  and  C_12 
REMARK    5  A    between atoms: N_18  and  C_19 
REMARK    6  A    between atoms: C_26  and  O_27 
REMARK    7  A    between atoms: C_29  and  O_30 
ROOT
HETATM    1  C   UNL     1       6.918  13.908  21.989  0.00  0.00     0.108 A 
HETATM    2  C   UNL     1       6.790  12.703  21.282  0.00  0.00     0.046 A 
HETATM    3  C   UNL     1       5.569  12.028  21.232  0.00  0.00     0.047 A 
HETATM    4  C   UNL     1       4.454  12.624  21.831  0.00  0.00     0.082 A 
HETATM    5  C   UNL     1       4.583  13.802  22.570  0.00  0.00     0.075 A 
HETATM    6  C   UNL     1       5.820  14.436  22.665  0.00  0.00     0.091 A 
ENDROOT
BRANCH   3   7
HETATM    7  C   UNL     1       5.425  10.743  20.508  0.00  0.00     0.172 A 
HETATM    8  N   UNL     1       4.697  10.664  19.425  0.00  0.00    -0.151 NA
HETATM    9  N   UNL     1       4.848   9.370  19.019  0.00  0.00    -0.226 N 
HETATM   10  H   UNL     1       4.358   8.977  18.225  0.00  0.00     0.194 HD
HETATM   11  C   UNL     1       5.636   8.648  19.916  0.00  0.00     0.349 A 
HETATM   12  O   UNL     1       5.813   7.439  19.863  0.00  0.00    -0.245 OA
HETATM   13  N   UNL     1       6.041   9.566  20.861  0.00  0.00    -0.243 N 
BRANCH  13  14
HETATM   14  C   UNL     1       6.783   9.247  22.019  0.00  0.00     0.067 A 
HETATM   15  C   UNL     1       8.159   9.537  22.047  0.00  0.00     0.032 A 
HETATM   16  C   UNL     1       8.979   9.023  23.052  0.00  0.00     0.002 A 
HETATM   17  C   UNL     1       8.434   8.224  24.051  0.00  0.00     0.002 A 
HETATM   18  C   UNL     1       7.060   7.992  24.083  0.00  0.00     0.026 A 
HETATM   19  C   UNL     1       6.227   8.517  23.087  0.00  0.00     0.061 A 
HETATM   20 CL   UNL     1       4.560   8.065  23.157  0.00  0.00    -0.082 Cl
ENDBRANCH  13  14
ENDBRANCH   3   7
BRANCH   4  21
HETATM   21  O   UNL     1       3.186  12.124  21.718  0.00  0.00    -0.360 OA
HETATM   22  H   UNL     1       2.787  12.477  20.892  0.00  0.00     0.217 HD
ENDBRANCH   4  21
BRANCH   1  23
HETATM   23  S   UNL     1       8.509  14.719  21.935  0.00  0.00     0.246 S 
HETATM   24  O   UNL     1       8.283  16.116  22.239  0.00  0.00    -0.206 OA
HETATM   25  O   UNL     1       9.192  14.367  20.708  0.00  0.00    -0.206 OA
BRANCH  23  26
HETATM   26  N   UNL     1       9.335  13.956  23.258  0.00  0.00    -0.207 NA
HETATM   27  C   UNL     1      10.281  12.908  22.768  0.00  0.00     0.130 C 
BRANCH  26  28
HETATM   28  C   UNL     1       8.547  13.533  24.479  0.00  0.00     0.065 C 
HETATM   29  C   UNL     1       9.136  12.250  25.085  0.00  0.00     0.027 C 
HETATM   30  C   UNL     1       8.559  14.583  25.594  0.00  0.00     0.027 C 
ENDBRANCH  26  28
ENDBRANCH  23  26
ENDBRANCH   1  23
BRANCH   6  31
HETATM   31  O   UNL     1       5.902  15.605  23.356  0.00  0.00    -0.359 OA
HETATM   32  H   UNL     1       6.143  16.333  22.759  0.00  0.00     0.217 HD
ENDBRANCH   6  31
TORSDOF 7
ENDMDL
MODEL 8
REMARK VINA RESULT:    -6.592      2.732      3.790
REMARK INTER + INTRA:         -11.205
REMARK INTER:                  -9.256
REMARK INTRA:                  -1.948
REMARK UNBOUND:                -2.301
REMARK  7 active torsions:
REMARK  status: ('A' for Active; 'I' for Inactive)
REMARK    1  A    between atoms: C_2  and  N_4 
REMARK    2  A    between atoms: N_4  and  S_6 
REMARK    3  A    between atoms: S_6  and  C_9 
REMARK    4  A    between atoms: C_11  and  C_12 
REMARK    5  A    between atoms: N_18  and  C_19 
REMARK    6  A    between atoms: C_26  and  O_27 
REMARK    7  A    between atoms: C_29  and  O_30 
ROOT
HETATM    1  C   UNL     1       6.750   9.882  22.465  0.00  0.00     0.108 A 
HETATM    2  C   UNL     1       7.199  11.124  21.992  0.00  0.00     0.046 A 
HETATM    3  C   UNL     1       8.313  11.746  22.559  0.00  0.00     0.047 A 
HETATM    4  C   UNL     1       9.022  11.064  23.553  0.00  0.00     0.082 A 
HETATM    5  C   UNL     1       8.558   9.847  24.057  0.00  0.00     0.075 A 
HETATM    6  C   UNL     1       7.409   9.263  23.525  0.00  0.00     0.091 A 
ENDROOT
BRANCH   3   7
HETATM    7  C   UNL     1       8.784  13.069  22.085  0.00  0.00     0.172 A 
HETATM    8  N   UNL     1       9.868  13.172  21.362  0.00  0.00    -0.151 NA
HETATM    9  N   UNL     1       9.948  14.502  21.073  0.00  0.00    -0.226 N 
HETATM   10  H   UNL     1      10.721  14.914  20.565  0.00  0.00     0.194 HD
HETATM   11  C   UNL     1       8.919  15.215  21.690  0.00  0.00     0.349 A 
HETATM   12  O   UNL     1       8.837  16.436  21.708  0.00  0.00    -0.245 OA
HETATM   13  N   UNL     1       8.142  14.262  22.311  0.00  0.00    -0.243 N 
BRANCH  13  14
HETATM   14  C   UNL     1       7.037  14.550  23.142  0.00  0.00     0.067 A 
HETATM   15  C   UNL     1       5.751  14.592  22.573  0.00  0.00     0.032 A 
HETATM   16  C   UNL     1       4.669  15.110  23.285  0.00  0.00     0.002 A 
HETATM   17  C   UNL     1       4.853  15.580  24.581  0.00  0.00     0.002 A 
HETATM   18  C   UNL     1       6.102  15.472  25.188  0.00  0.00     0.026 A 
HETATM   19  C   UNL     1       7.191  14.939  24.486  0.00  0.00     0.061 A 
HETATM   20 CL   UNL     1       8.719  14.967  25.294  0.00  0.00    -0.082 Cl
ENDBRANCH  13  14
ENDBRANCH   3   7
BRANCH   4  21
HETATM   21  O   UNL     1      10.204  11.515  24.074  0.00  0.00    -0.360 OA
HETATM   22  H   UNL     1      10.931  10.961  23.712  0.00  0.00     0.217 HD
ENDBRANCH   4  21
BRANCH   1  23
HETATM   23  S   UNL     1       5.355   9.146  21.626  0.00  0.00     0.246 S 
HETATM   24  O   UNL     1       4.681  10.209  20.912  0.00  0.00    -0.206 OA
HETATM   25  O   UNL     1       4.601   8.334  22.557  0.00  0.00    -0.206 OA
BRANCH  23  26
HETATM   26  N   UNL     1       6.145   8.090  20.496  0.00  0.00    -0.207 NA
HETATM   27  C   UNL     1       5.785   8.443  19.089  0.00  0.00     0.130 C 
BRANCH  26  28
HETATM   28  C   UNL     1       6.158   6.600  20.758  0.00  0.00     0.065 C 
HETATM   29  C   UNL     1       5.808   5.822  19.480  0.00  0.00     0.027 C 
HETATM   30  C   UNL     1       7.525   6.084  21.217  0.00  0.00     0.027 C 
ENDBRANCH  26  28
ENDBRANCH  23  26
ENDBRANCH   1  23
BRANCH   6  31
HETATM   31  O   UNL     1       7.010   8.055  24.008  0.00  0.00    -0.359 OA
HETATM   32  H   UNL     1       6.175   8.147  24.498  0.00  0.00     0.217 HD
ENDBRANCH   6  31
TORSDOF 7
ENDMDL
MODEL 9
REMARK VINA RESULT:    -6.540      2.499      5.590
REMARK INTER + INTRA:         -11.135
REMARK INTER:                  -8.835
REMARK INTRA:                  -2.301
REMARK UNBOUND:                -2.301
REMARK  7 active torsions:
REMARK  status: ('A' for Active; 'I' for Inactive)
REMARK    1  A    between atoms: C_2  and  N_4 
REMARK    2  A    between atoms: N_4  and  S_6 
REMARK    3  A    between atoms: S_6  and  C_9 
REMARK    4  A    between atoms: C_11  and  C_12 
REMARK    5  A    between atoms: N_18  and  C_19 
REMARK    6  A    between atoms: C_26  and  O_27 
REMARK    7  A    between atoms: C_29  and  O_30 
ROOT
HETATM    1  C   UNL     1       8.774  13.415  22.867  0.00  0.00     0.108 A 
HETATM    2  C   UNL     1       7.906  13.081  21.816  0.00  0.00     0.046 A 
HETATM    3  C   UNL     1       7.687  11.747  21.464  0.00  0.00     0.047 A 
HETATM    4  C   UNL     1       8.285  10.748  22.239  0.00  0.00     0.082 A 
HETATM    5  C   UNL     1       9.181  11.073  23.259  0.00  0.00     0.075 A 
HETATM    6  C   UNL     1       9.441  12.408  23.563  0.00  0.00     0.091 A 
ENDROOT
BRANCH   3   7
HETATM    7  C   UNL     1       6.791  11.382  20.342  0.00  0.00     0.172 A 
HETATM    8  N   UNL     1       7.266  11.221  19.134  0.00  0.00    -0.151 NA
HETATM    9  N   UNL     1       6.181  10.841  18.400  0.00  0.00    -0.226 N 
HETATM   10  H   UNL     1       6.213  10.691  17.399  0.00  0.00     0.194 HD
HETATM   11  C   UNL     1       5.022  10.835  19.178  0.00  0.00     0.349 A 
HETATM   12  O   UNL     1       3.894  10.666  18.738  0.00  0.00    -0.245 OA
HETATM   13  N   UNL     1       5.442  11.147  20.453  0.00  0.00    -0.243 N 
BRANCH  13  14
HETATM   14  C   UNL     1       4.579  11.346  21.552  0.00  0.00     0.067 A 
HETATM   15  C   UNL     1       4.104  12.643  21.818  0.00  0.00     0.032 A 
HETATM   16  C   UNL     1       3.459  12.938  23.020  0.00  0.00     0.002 A 
HETATM   17  C   UNL     1       3.267  11.938  23.967  0.00  0.00     0.002 A 
HETATM   18  C   UNL     1       3.660  10.631  23.687  0.00  0.00     0.026 A 
HETATM   19  C   UNL     1       4.295  10.323  22.477  0.00  0.00     0.061 A 
HETATM   20 CL   UNL     1       4.849   8.696  22.288  0.00  0.00    -0.082 Cl
ENDBRANCH  13  14
ENDBRANCH   3   7
BRANCH   4  21
HETATM   21  O   UNL     1       8.024   9.415  22.074  0.00  0.00    -0.360 OA
HETATM   22  H   UNL     1       8.066   9.210  21.113  0.00  0.00     0.217 HD
ENDBRANCH   4  21
BRANCH   1  23
HETATM   23  S   UNL     1       8.932  15.147  23.274  0.00  0.00     0.246 S 
HETATM   24  O   UNL     1       8.480  15.896  22.121  0.00  0.00    -0.206 OA
HETATM   25  O   UNL     1      10.255  15.402  23.804  0.00  0.00    -0.206 OA
BRANCH  23  26
HETATM   26  N   UNL     1       7.784  15.309  24.566  0.00  0.00    -0.207 NA
HETATM   27  C   UNL     1       8.422  15.028  25.888  0.00  0.00     0.130 C 
BRANCH  26  28
HETATM   28  C   UNL     1       6.409  14.694  24.418  0.00  0.00     0.065 C 
HETATM   29  C   UNL     1       6.225  13.533  25.408  0.00  0.00     0.027 C 
HETATM   30  C   UNL     1       5.276  15.686  24.699  0.00  0.00     0.027 C 
ENDBRANCH  26  28
ENDBRANCH  23  26
ENDBRANCH   1  23
BRANCH   6  31
HETATM   31  O   UNL     1      10.284  12.690  24.592  0.00  0.00    -0.359 OA
HETATM   32  H   UNL     1      11.195  12.443  24.360  0.00  0.00     0.217 HD
ENDBRANCH   6  31
TORSDOF 7
ENDMDL
