REMARK  7 active torsions:
REMARK  status: ('A' for Active; 'I' for Inactive)
REMARK    1  A    between atoms: C_2  and  N_4 
REMARK    2  A    between atoms: N_4  and  S_6 
REMARK    3  A    between atoms: S_6  and  C_9 
REMARK    4  A    between atoms: C_11  and  C_12 
REMARK    5  A    between atoms: N_18  and  C_19 
REMARK    6  A    between atoms: C_26  and  O_27 
REMARK    7  A    between atoms: C_29  and  O_30 
ROOT
HETATM    1  C   UNL     1       5.092   2.070  -2.454  0.00  0.00     0.108 A 
HETATM    2  C   UNL     1       5.040   3.452  -2.218  0.00  0.00     0.046 A 
HETATM    3  C   UNL     1       5.228   4.364  -3.259  0.00  0.00     0.047 A 
HETATM    4  C   UNL     1       5.384   3.868  -4.558  0.00  0.00     0.082 A 
HETATM    5  C   UNL     1       5.478   2.495  -4.794  0.00  0.00     0.075 A 
HETATM    6  C   UNL     1       5.350   1.594  -3.738  0.00  0.00     0.091 A 
ENDROOT
BRANCH   3   7
HETATM    7  C   UNL     1       5.199   5.826  -3.020  0.00  0.00     0.172 A 
HETATM    8  N   UNL     1       4.719   6.641  -3.923  0.00  0.00    -0.151 NA
HETATM    9  N   UNL     1       4.803   7.870  -3.337  0.00  0.00    -0.226 N 
HETATM   10  H   UNL     1       4.555   8.729  -3.812  0.00  0.00     0.194 HD
HETATM   11  C   UNL     1       5.403   7.790  -2.080  0.00  0.00     0.349 A 
HETATM   12  O   UNL     1       5.723   8.757  -1.403  0.00  0.00    -0.245 OA
HETATM   13  N   UNL     1       5.617   6.445  -1.867  0.00  0.00    -0.243 N 
BRANCH  13  14
HETATM   14  C   UNL     1       6.297   5.911  -0.751  0.00  0.00     0.067 A 
HETATM   15  C   UNL     1       7.380   5.040  -0.967  0.00  0.00     0.032 A 
HETATM   16  C   UNL     1       7.922   4.297   0.082  0.00  0.00     0.002 A 
HETATM   17  C   UNL     1       7.399   4.423   1.364  0.00  0.00     0.002 A 
HETATM   18  C   UNL     1       6.379   5.340   1.611  0.00  0.00     0.026 A 
HETATM   19  C   UNL     1       5.839   6.102   0.567  0.00  0.00     0.061 A 
HETATM   20 CL   UNL     1       4.497   7.116   0.965  0.00  0.00    -0.082 Cl
ENDBRANCH  13  14
ENDBRANCH   3   7
BRANCH   4  21
HETATM   21  O   UNL     1       5.431   4.670  -5.665  0.00  0.00    -0.360 OA
HETATM   22  H   UNL     1       5.109   5.564  -5.412  0.00  0.00     0.217 HD
ENDBRANCH   4  21
BRANCH   1  23
HETATM   23  S   UNL     1       4.775   0.994  -1.064  0.00  0.00     0.246 S 
HETATM   24  O   UNL     1       5.219   1.693   0.123  0.00  0.00    -0.206 OA
HETATM   25  O   UNL     1       5.301  -0.326  -1.342  0.00  0.00    -0.206 OA
BRANCH  23  26
HETATM   26  N   UNL     1       3.041   0.906  -1.079  0.00  0.00    -0.207 NA
HETATM   27  C   UNL     1       2.550   0.204  -2.304  0.00  0.00     0.130 C 
BRANCH  26  28
HETATM   28  C   UNL     1       2.233   2.135  -0.725  0.00  0.00     0.065 C 
HETATM   29  C   UNL     1       0.737   1.794  -0.640  0.00  0.00     0.027 C 
HETATM   30  C   UNL     1       2.617   2.735   0.631  0.00  0.00     0.027 C 
ENDBRANCH  26  28
ENDBRANCH  23  26
ENDBRANCH   1  23
BRANCH   6  31
HETATM   31  O   UNL     1       5.401   0.262  -4.009  0.00  0.00    -0.359 OA
HETATM   32  H   UNL     1       5.809   0.110  -4.878  0.00  0.00     0.217 HD
ENDBRANCH   6  31
TORSDOF 7
