MODEL 1
REMARK VINA RESULT:    -8.903      0.000      0.000
REMARK INTER + INTRA:         -12.793
REMARK INTER:                 -11.618
REMARK INTRA:                  -1.175
REMARK UNBOUND:                -1.288
REMARK  6 active torsions:
REMARK  status: ('A' for Active; 'I' for Inactive)
REMARK    1  A    between atoms: C_3  and  O_4 
REMARK    2  A    between atoms: C_7  and  N_8 
REMARK       I    between atoms: N_8  and  C_10 
REMARK    3  A    between atoms: C_10  and  C_12 
REMARK    4  A    between atoms: C_14  and  O_15 
REMARK    5  A    between atoms: C_22  and  C_23 
REMARK    6  A    between atoms: C_23  and  C_24 
ROOT
HETATM    1  C   UNL     1      -3.067  14.773  22.023  0.00  0.00     0.066 C 
HETATM    2  C   UNL     1      -1.767  15.284  22.226  0.00  0.00     0.035 C 
HETATM    3  C   UNL     1      -3.687  15.050  20.787  0.00  0.00     0.083 C 
HETATM    4  C   UNL     1      -3.105  15.891  19.826  0.00  0.00     0.069 C 
HETATM    5  C   UNL     1      -1.905  16.517  20.174  0.00  0.00     0.065 A 
HETATM    6  C   UNL     1      -1.233  16.264  21.362  0.00  0.00     0.020 A 
HETATM    7  N   UNL     1      -1.130  17.431  19.516  0.00  0.00    -0.277 N 
HETATM    8  H   UNL     1      -1.281  17.812  18.588  0.00  0.00     0.189 HD
HETATM    9  N   UNL     1      -0.076  17.873  20.223  0.00  0.00    -0.178 NA
HETATM   10  C   UNL     1      -0.133  17.186  21.377  0.00  0.00     0.071 A 
ENDROOT
BRANCH   1  11
HETATM   11  C   UNL     1      -3.832  13.963  23.062  0.00  0.00     0.260 C 
HETATM   12  N   UNL     1      -3.557  12.577  23.295  0.00  0.00    -0.318 N 
HETATM   13  C   UNL     1      -2.547  11.871  22.502  0.00  0.00     0.159 C 
HETATM   14  O   UNL     1      -4.630  14.627  23.728  0.00  0.00    -0.267 OA
BRANCH  12  15
HETATM   15  C   UNL     1      -4.341  11.752  24.216  0.00  0.00     0.037 A 
HETATM   16  C   UNL     1      -4.031  11.714  25.595  0.00  0.00     0.032 A 
HETATM   17  C   UNL     1      -4.632  10.817  26.485  0.00  0.00     0.039 A 
HETATM   18  C   UNL     1      -5.604   9.955  26.020  0.00  0.00     0.065 A 
HETATM   19  C   UNL     1      -6.018  10.027  24.700  0.00  0.00     0.039 A 
HETATM   20  C   UNL     1      -5.394  10.920  23.807  0.00  0.00     0.032 A 
BRANCH  18  21
HETATM   21  O   UNL     1      -6.168   9.024  26.838  0.00  0.00    -0.361 OA
HETATM   22  H   UNL     1      -6.230   8.186  26.350  0.00  0.00     0.217 HD
ENDBRANCH  18  21
ENDBRANCH  12  15
ENDBRANCH   1  11
BRANCH   3  23
HETATM   23  O   UNL     1      -4.903  14.523  20.418  0.00  0.00    -0.360 OA
HETATM   24  H   UNL     1      -5.014  13.664  20.886  0.00  0.00     0.217 HD
ENDBRANCH   3  23
BRANCH  10  25
HETATM   25  C   UNL     1       0.889  17.482  22.455  0.00  0.00     0.100 C 
BRANCH  25  26
HETATM   26  C   UNL     1       1.837  16.306  22.673  0.00  0.00    -0.052 A 
HETATM   27  C   UNL     1       1.638  15.333  23.662  0.00  0.00     0.007 A 
HETATM   28  C   UNL     1       2.524  14.264  23.815  0.00  0.00     0.001 A 
HETATM   29  C   UNL     1       3.683  14.192  23.052  0.00  0.00     0.007 A 
HETATM   30  C   UNL     1       3.995  15.215  22.156  0.00  0.00    -0.061 A 
HETATM   31  C   UNL     1       3.049  16.242  21.940  0.00  0.00     0.014 A 
HETATM   32  C   UNL     1       5.332  15.191  21.466  0.00  0.00     0.048 C 
ENDBRANCH  25  26
ENDBRANCH  10  25
TORSDOF 6
ENDMDL
MODEL 2
REMARK VINA RESULT:    -8.840      2.655      3.394
REMARK INTER + INTRA:         -12.712
REMARK INTER:                 -11.284
REMARK INTRA:                  -1.427
REMARK UNBOUND:                -1.288
REMARK  6 active torsions:
REMARK  status: ('A' for Active; 'I' for Inactive)
REMARK    1  A    between atoms: C_3  and  O_4 
REMARK    2  A    between atoms: C_7  and  N_8 
REMARK       I    between atoms: N_8  and  C_10 
REMARK    3  A    between atoms: C_10  and  C_12 
REMARK    4  A    between atoms: C_14  and  O_15 
REMARK    5  A    between atoms: C_22  and  C_23 
REMARK    6  A    between atoms: C_23  and  C_24 
ROOT
HETATM    1  C   UNL     1      -2.823  13.403  21.640  0.00  0.00     0.066 C 
HETATM    2  C   UNL     1      -2.003  14.258  20.871  0.00  0.00     0.035 C 
HETATM    3  C   UNL     1      -4.175  13.769  21.795  0.00  0.00     0.083 C 
HETATM    4  C   UNL     1      -4.685  14.983  21.312  0.00  0.00     0.069 C 
HETATM    5  C   UNL     1      -3.774  15.869  20.729  0.00  0.00     0.065 A 
HETATM    6  C   UNL     1      -2.438  15.555  20.523  0.00  0.00     0.020 A 
HETATM    7  N   UNL     1      -3.922  17.134  20.234  0.00  0.00    -0.277 N 
HETATM    8  H   UNL     1      -4.778  17.673  20.167  0.00  0.00     0.189 HD
HETATM    9  N   UNL     1      -2.776  17.706  19.829  0.00  0.00    -0.178 NA
HETATM   10  C   UNL     1      -1.840  16.760  20.022  0.00  0.00     0.071 A 
ENDROOT
BRANCH   1  11
HETATM   11  C   UNL     1      -2.324  12.132  22.317  0.00  0.00     0.260 C 
HETATM   12  N   UNL     1      -1.457  12.171  23.456  0.00  0.00    -0.318 N 
HETATM   13  C   UNL     1      -0.979  13.448  23.990  0.00  0.00     0.159 C 
HETATM   14  O   UNL     1      -2.803  11.096  21.852  0.00  0.00    -0.267 OA
BRANCH  12  15
HETATM   15  C   UNL     1      -0.886  10.967  24.063  0.00  0.00     0.037 A 
HETATM   16  C   UNL     1       0.170  10.270  23.433  0.00  0.00     0.032 A 
HETATM   17  C   UNL     1       0.632   9.026  23.877  0.00  0.00     0.039 A 
HETATM   18  C   UNL     1       0.074   8.463  25.006  0.00  0.00     0.065 A 
HETATM   19  C   UNL     1      -0.890   9.157  25.720  0.00  0.00     0.039 A 
HETATM   20  C   UNL     1      -1.363  10.399  25.254  0.00  0.00     0.032 A 
BRANCH  18  21
HETATM   21  O   UNL     1       0.450   7.227  25.435  0.00  0.00    -0.361 OA
HETATM   22  H   UNL     1      -0.243   6.884  26.024  0.00  0.00     0.217 HD
ENDBRANCH  18  21
ENDBRANCH  12  15
ENDBRANCH   1  11
BRANCH   3  23
HETATM   23  O   UNL     1      -5.105  12.974  22.425  0.00  0.00    -0.360 OA
HETATM   24  H   UNL     1      -4.666  12.124  22.659  0.00  0.00     0.217 HD
ENDBRANCH   3  23
BRANCH  10  25
HETATM   25  C   UNL     1      -0.393  17.091  19.722  0.00  0.00     0.100 C 
BRANCH  25  26
HETATM   26  C   UNL     1       0.536  16.624  20.840  0.00  0.00    -0.052 A 
HETATM   27  C   UNL     1       0.486  17.135  22.144  0.00  0.00     0.007 A 
HETATM   28  C   UNL     1       1.346  16.666  23.139  0.00  0.00     0.001 A 
HETATM   29  C   UNL     1       2.345  15.748  22.836  0.00  0.00     0.007 A 
HETATM   30  C   UNL     1       2.525  15.320  21.520  0.00  0.00    -0.061 A 
HETATM   31  C   UNL     1       1.592  15.726  20.539  0.00  0.00     0.014 A 
HETATM   32  C   UNL     1       3.712  14.456  21.195  0.00  0.00     0.048 C 
ENDBRANCH  25  26
ENDBRANCH  10  25
TORSDOF 6
ENDMDL
MODEL 3
REMARK VINA RESULT:    -8.627      3.489      7.830
REMARK INTER + INTRA:         -12.436
REMARK INTER:                 -11.276
REMARK INTRA:                  -1.160
REMARK UNBOUND:                -1.288
REMARK  6 active torsions:
REMARK  status: ('A' for Active; 'I' for Inactive)
REMARK    1  A    between atoms: C_3  and  O_4 
REMARK    2  A    between atoms: C_7  and  N_8 
REMARK       I    between atoms: N_8  and  C_10 
REMARK    3  A    between atoms: C_10  and  C_12 
REMARK    4  A    between atoms: C_14  and  O_15 
REMARK    5  A    between atoms: C_22  and  C_23 
REMARK    6  A    between atoms: C_23  and  C_24 
ROOT
HETATM    1  C   UNL     1      -1.549  14.556  23.908  0.00  0.00     0.066 C 
HETATM    2  C   UNL     1      -1.676  13.923  25.163  0.00  0.00     0.035 C 
HETATM    3  C   UNL     1      -2.718  14.696  23.131  0.00  0.00     0.083 C 
HETATM    4  C   UNL     1      -3.946  14.138  23.516  0.00  0.00     0.069 C 
HETATM    5  C   UNL     1      -3.955  13.359  24.677  0.00  0.00     0.065 A 
HETATM    6  C   UNL     1      -2.846  13.207  25.497  0.00  0.00     0.020 A 
HETATM    7  N   UNL     1      -4.943  12.630  25.277  0.00  0.00    -0.277 N 
HETATM    8  H   UNL     1      -5.911  12.548  24.987  0.00  0.00     0.189 HD
HETATM    9  N   UNL     1      -4.538  11.931  26.352  0.00  0.00    -0.178 NA
HETATM   10  C   UNL     1      -3.240  12.251  26.492  0.00  0.00     0.071 A 
ENDROOT
BRANCH   1  11
HETATM   11  C   UNL     1      -0.230  15.074  23.348  0.00  0.00     0.260 C 
HETATM   12  N   UNL     1       0.725  14.204  22.731  0.00  0.00    -0.318 N 
HETATM   13  C   UNL     1       0.482  12.762  22.654  0.00  0.00     0.159 C 
HETATM   14  O   UNL     1      -0.112  16.301  23.397  0.00  0.00    -0.267 OA
BRANCH  12  15
HETATM   15  C   UNL     1       2.039  14.659  22.273  0.00  0.00     0.037 A 
HETATM   16  C   UNL     1       2.197  15.245  20.997  0.00  0.00     0.032 A 
HETATM   17  C   UNL     1       3.449  15.537  20.443  0.00  0.00     0.039 A 
HETATM   18  C   UNL     1       4.587  15.288  21.182  0.00  0.00     0.065 A 
HETATM   19  C   UNL     1       4.479  14.813  22.479  0.00  0.00     0.039 A 
HETATM   20  C   UNL     1       3.216  14.504  23.020  0.00  0.00     0.032 A 
BRANCH  18  21
HETATM   21  O   UNL     1       5.826  15.497  20.657  0.00  0.00    -0.361 OA
HETATM   22  H   UNL     1       5.828  15.174  19.740  0.00  0.00     0.217 HD
ENDBRANCH  18  21
ENDBRANCH  12  15
ENDBRANCH   1  11
BRANCH   3  23
HETATM   23  O   UNL     1      -2.756  15.387  21.943  0.00  0.00    -0.360 OA
HETATM   24  H   UNL     1      -3.692  15.640  21.770  0.00  0.00     0.217 HD
ENDBRANCH   3  23
BRANCH  10  25
HETATM   25  C   UNL     1      -2.438  11.585  27.590  0.00  0.00     0.100 C 
BRANCH  25  26
HETATM   26  C   UNL     1      -1.664  10.376  27.070  0.00  0.00    -0.052 A 
HETATM   27  C   UNL     1      -1.208   9.342  27.898  0.00  0.00     0.007 A 
HETATM   28  C   UNL     1      -0.516   8.247  27.376  0.00  0.00     0.001 A 
HETATM   29  C   UNL     1      -0.175   8.203  26.029  0.00  0.00     0.007 A 
HETATM   30  C   UNL     1      -0.483   9.278  25.195  0.00  0.00    -0.061 A 
HETATM   31  C   UNL     1      -1.264  10.337  25.710  0.00  0.00     0.014 A 
HETATM   32  C   UNL     1       0.040   9.273  23.784  0.00  0.00     0.048 C 
ENDBRANCH  25  26
ENDBRANCH  10  25
TORSDOF 6
ENDMDL
MODEL 4
REMARK VINA RESULT:    -8.619      3.665      8.021
REMARK INTER + INTRA:         -12.426
REMARK INTER:                 -11.337
REMARK INTRA:                  -1.089
REMARK UNBOUND:                -1.288
REMARK  6 active torsions:
REMARK  status: ('A' for Active; 'I' for Inactive)
REMARK    1  A    between atoms: C_3  and  O_4 
REMARK    2  A    between atoms: C_7  and  N_8 
REMARK       I    between atoms: N_8  and  C_10 
REMARK    3  A    between atoms: C_10  and  C_12 
REMARK    4  A    between atoms: C_14  and  O_15 
REMARK    5  A    between atoms: C_22  and  C_23 
REMARK    6  A    between atoms: C_23  and  C_24 
ROOT
HETATM    1  C   UNL     1      -1.415  14.344  23.979  0.00  0.00     0.066 C 
HETATM    2  C   UNL     1      -1.548  13.661  25.208  0.00  0.00     0.035 C 
HETATM    3  C   UNL     1      -2.596  14.622  23.261  0.00  0.00     0.083 C 
HETATM    4  C   UNL     1      -3.852  14.152  23.671  0.00  0.00     0.069 C 
HETATM    5  C   UNL     1      -3.885  13.319  24.793  0.00  0.00     0.065 A 
HETATM    6  C   UNL     1      -2.762  13.032  25.557  0.00  0.00     0.020 A 
HETATM    7  N   UNL     1      -4.908  12.648  25.400  0.00  0.00    -0.277 N 
HETATM    8  H   UNL     1      -5.891  12.664  25.148  0.00  0.00     0.189 HD
HETATM    9  N   UNL     1      -4.525  11.863  26.422  0.00  0.00    -0.178 NA
HETATM   10  C   UNL     1      -3.199  12.063  26.522  0.00  0.00     0.071 A 
ENDROOT
BRANCH   1  11
HETATM   11  C   UNL     1      -0.078  14.775  23.389  0.00  0.00     0.260 C 
HETATM   12  N   UNL     1       0.819  13.839  22.779  0.00  0.00    -0.318 N 
HETATM   13  C   UNL     1       0.496  12.411  22.741  0.00  0.00     0.159 C 
HETATM   14  O   UNL     1       0.108  15.994  23.406  0.00  0.00    -0.267 OA
BRANCH  12  15
HETATM   15  C   UNL     1       2.148  14.210  22.293  0.00  0.00     0.037 A 
HETATM   16  C   UNL     1       3.269  14.172  23.153  0.00  0.00     0.032 A 
HETATM   17  C   UNL     1       4.523  14.679  22.792  0.00  0.00     0.039 A 
HETATM   18  C   UNL     1       4.700  15.201  21.528  0.00  0.00     0.065 A 
HETATM   19  C   UNL     1       3.661  15.164  20.612  0.00  0.00     0.039 A 
HETATM   20  C   UNL     1       2.397  14.670  20.991  0.00  0.00     0.032 A 
BRANCH  18  21
HETATM   21  O   UNL     1       5.885  15.762  21.158  0.00  0.00    -0.361 OA
HETATM   22  H   UNL     1       5.832  16.720  21.315  0.00  0.00     0.217 HD
ENDBRANCH  18  21
ENDBRANCH  12  15
ENDBRANCH   1  11
BRANCH   3  23
HETATM   23  O   UNL     1      -2.619  15.374  22.109  0.00  0.00    -0.360 OA
HETATM   24  H   UNL     1      -1.820  15.143  21.582  0.00  0.00     0.217 HD
ENDBRANCH   3  23
BRANCH  10  25
HETATM   25  C   UNL     1      -2.417  11.276  27.551  0.00  0.00     0.100 C 
BRANCH  25  26
HETATM   26  C   UNL     1      -1.601  10.159  26.907  0.00  0.00    -0.052 A 
HETATM   27  C   UNL     1      -1.373  10.071  25.527  0.00  0.00     0.007 A 
HETATM   28  C   UNL     1      -0.606   9.039  24.983  0.00  0.00     0.001 A 
HETATM   29  C   UNL     1      -0.129   8.012  25.789  0.00  0.00     0.007 A 
HETATM   30  C   UNL     1      -0.452   7.981  27.146  0.00  0.00    -0.061 A 
HETATM   31  C   UNL     1      -1.148   9.076  27.705  0.00  0.00     0.014 A 
HETATM   32  C   UNL     1      -0.060   6.776  27.957  0.00  0.00     0.048 C 
ENDBRANCH  25  26
ENDBRANCH  10  25
TORSDOF 6
ENDMDL
MODEL 5
REMARK VINA RESULT:    -8.516      4.306      7.159
REMARK INTER + INTRA:         -12.293
REMARK INTER:                 -11.368
REMARK INTRA:                  -0.925
REMARK UNBOUND:                -1.288
REMARK  6 active torsions:
REMARK  status: ('A' for Active; 'I' for Inactive)
REMARK    1  A    between atoms: C_3  and  O_4 
REMARK    2  A    between atoms: C_7  and  N_8 
REMARK       I    between atoms: N_8  and  C_10 
REMARK    3  A    between atoms: C_10  and  C_12 
REMARK    4  A    between atoms: C_14  and  O_15 
REMARK    5  A    between atoms: C_22  and  C_23 
REMARK    6  A    between atoms: C_23  and  C_24 
ROOT
HETATM    1  C   UNL     1      -1.656  10.405  25.018  0.00  0.00     0.066 C 
HETATM    2  C   UNL     1      -2.070  10.866  23.749  0.00  0.00     0.035 C 
HETATM    3  C   UNL     1      -2.361  10.882  26.142  0.00  0.00     0.083 C 
HETATM    4  C   UNL     1      -3.360  11.862  26.042  0.00  0.00     0.069 C 
HETATM    5  C   UNL     1      -3.584  12.414  24.778  0.00  0.00     0.065 A 
HETATM    6  C   UNL     1      -2.944  11.968  23.630  0.00  0.00     0.020 A 
HETATM    7  N   UNL     1      -4.412  13.416  24.355  0.00  0.00    -0.277 N 
HETATM    8  H   UNL     1      -5.076  13.943  24.912  0.00  0.00     0.189 HD
HETATM    9  N   UNL     1      -4.281  13.729  23.055  0.00  0.00    -0.178 NA
HETATM   10  C   UNL     1      -3.360  12.865  22.591  0.00  0.00     0.071 A 
ENDROOT
BRANCH   1  11
HETATM   11  C   UNL     1      -0.494   9.444  25.234  0.00  0.00     0.260 C 
HETATM   12  N   UNL     1       0.867   9.846  25.043  0.00  0.00    -0.318 N 
HETATM   13  C   UNL     1       1.190  11.199  24.585  0.00  0.00     0.159 C 
HETATM   14  O   UNL     1      -0.830   8.339  25.668  0.00  0.00    -0.267 OA
BRANCH  12  15
HETATM   15  C   UNL     1       1.995   8.918  25.149  0.00  0.00     0.037 A 
HETATM   16  C   UNL     1       2.785   8.872  26.320  0.00  0.00     0.032 A 
HETATM   17  C   UNL     1       3.971   8.134  26.409  0.00  0.00     0.039 A 
HETATM   18  C   UNL     1       4.377   7.378  25.329  0.00  0.00     0.065 A 
HETATM   19  C   UNL     1       3.582   7.307  24.196  0.00  0.00     0.039 A 
HETATM   20  C   UNL     1       2.400   8.068  24.109  0.00  0.00     0.032 A 
BRANCH  18  21
HETATM   21  O   UNL     1       5.556   6.697  25.350  0.00  0.00    -0.361 OA
HETATM   22  H   UNL     1       5.749   6.448  26.270  0.00  0.00     0.217 HD
ENDBRANCH  18  21
ENDBRANCH  12  15
ENDBRANCH   1  11
BRANCH   3  23
HETATM   23  O   UNL     1      -2.134  10.432  27.422  0.00  0.00    -0.360 OA
HETATM   24  H   UNL     1      -2.300   9.462  27.434  0.00  0.00     0.217 HD
ENDBRANCH   3  23
BRANCH  10  25
HETATM   25  C   UNL     1      -2.917  12.976  21.148  0.00  0.00     0.100 C 
BRANCH  25  26
HETATM   26  C   UNL     1      -2.797  14.431  20.704  0.00  0.00    -0.052 A 
HETATM   27  C   UNL     1      -3.715  15.051  19.846  0.00  0.00     0.007 A 
HETATM   28  C   UNL     1      -3.574  16.391  19.479  0.00  0.00     0.001 A 
HETATM   29  C   UNL     1      -2.460  17.120  19.877  0.00  0.00     0.007 A 
HETATM   30  C   UNL     1      -1.448  16.503  20.613  0.00  0.00    -0.061 A 
HETATM   31  C   UNL     1      -1.643  15.177  21.059  0.00  0.00     0.014 A 
HETATM   32  C   UNL     1      -0.183  17.269  20.890  0.00  0.00     0.048 C 
ENDBRANCH  25  26
ENDBRANCH  10  25
TORSDOF 6
ENDMDL
MODEL 6
REMARK VINA RESULT:    -8.492      2.258      4.667
REMARK INTER + INTRA:         -12.262
REMARK INTER:                 -11.531
REMARK INTRA:                  -0.731
REMARK UNBOUND:                -1.288
REMARK  6 active torsions:
REMARK  status: ('A' for Active; 'I' for Inactive)
REMARK    1  A    between atoms: C_3  and  O_4 
REMARK    2  A    between atoms: C_7  and  N_8 
REMARK       I    between atoms: N_8  and  C_10 
REMARK    3  A    between atoms: C_10  and  C_12 
REMARK    4  A    between atoms: C_14  and  O_15 
REMARK    5  A    between atoms: C_22  and  C_23 
REMARK    6  A    between atoms: C_23  and  C_24 
ROOT
HETATM    1  C   UNL     1      -0.033  15.632  23.810  0.00  0.00     0.066 C 
HETATM    2  C   UNL     1      -0.423  16.438  22.717  0.00  0.00     0.035 C 
HETATM    3  C   UNL     1       1.349  15.484  24.044  0.00  0.00     0.083 C 
HETATM    4  C   UNL     1       2.319  16.010  23.178  0.00  0.00     0.069 C 
HETATM    5  C   UNL     1       1.861  16.631  22.012  0.00  0.00     0.065 A 
HETATM    6  C   UNL     1       0.515  16.832  21.739  0.00  0.00     0.020 A 
HETATM    7  N   UNL     1       2.524  17.172  20.947  0.00  0.00    -0.277 N 
HETATM    8  H   UNL     1       3.527  17.254  20.823  0.00  0.00     0.189 HD
HETATM    9  N   UNL     1       1.722  17.605  19.959  0.00  0.00    -0.178 NA
HETATM   10  C   UNL     1       0.476  17.382  20.414  0.00  0.00     0.071 A 
ENDROOT
BRANCH   1  11
HETATM   11  C   UNL     1      -1.015  14.911  24.725  0.00  0.00     0.260 C 
HETATM   12  N   UNL     1      -1.287  13.512  24.591  0.00  0.00    -0.318 N 
HETATM   13  C   UNL     1      -0.656  12.725  23.529  0.00  0.00     0.159 C 
HETATM   14  O   UNL     1      -1.470  15.617  25.628  0.00  0.00    -0.267 OA
BRANCH  12  15
HETATM   15  C   UNL     1      -2.296  12.816  25.393  0.00  0.00     0.037 A 
HETATM   16  C   UNL     1      -1.943  12.175  26.602  0.00  0.00     0.032 A 
HETATM   17  C   UNL     1      -2.825  11.354  27.314  0.00  0.00     0.039 A 
HETATM   18  C   UNL     1      -4.114  11.189  26.851  0.00  0.00     0.065 A 
HETATM   19  C   UNL     1      -4.540  11.880  25.729  0.00  0.00     0.039 A 
HETATM   20  C   UNL     1      -3.639  12.689  25.008  0.00  0.00     0.032 A 
BRANCH  18  21
HETATM   21  O   UNL     1      -4.983  10.349  27.477  0.00  0.00    -0.361 OA
HETATM   22  H   UNL     1      -4.714  10.268  28.408  0.00  0.00     0.217 HD
ENDBRANCH  18  21
ENDBRANCH  12  15
ENDBRANCH   1  11
BRANCH   3  23
HETATM   23  O   UNL     1       1.862  14.819  25.134  0.00  0.00    -0.360 OA
HETATM   24  H   UNL     1       1.106  14.515  25.686  0.00  0.00     0.217 HD
ENDBRANCH   3  23
BRANCH  10  25
HETATM   25  C   UNL     1      -0.698  17.702  19.514  0.00  0.00     0.100 C 
BRANCH  25  26
HETATM   26  C   UNL     1      -1.915  16.843  19.846  0.00  0.00    -0.052 A 
HETATM   27  C   UNL     1      -3.181  17.378  20.119  0.00  0.00     0.007 A 
HETATM   28  C   UNL     1      -4.271  16.553  20.403  0.00  0.00     0.001 A 
HETATM   29  C   UNL     1      -4.105  15.178  20.521  0.00  0.00     0.007 A 
HETATM   30  C   UNL     1      -2.834  14.614  20.400  0.00  0.00    -0.061 A 
HETATM   31  C   UNL     1      -1.756  15.444  20.020  0.00  0.00     0.014 A 
HETATM   32  C   UNL     1      -2.660  13.149  20.693  0.00  0.00     0.048 C 
ENDBRANCH  25  26
ENDBRANCH  10  25
TORSDOF 6
ENDMDL
MODEL 7
REMARK VINA RESULT:    -8.408      2.407      3.074
REMARK INTER + INTRA:         -12.153
REMARK INTER:                 -11.014
REMARK INTRA:                  -1.139
REMARK UNBOUND:                -1.288
REMARK  6 active torsions:
REMARK  status: ('A' for Active; 'I' for Inactive)
REMARK    1  A    between atoms: C_3  and  O_4 
REMARK    2  A    between atoms: C_7  and  N_8 
REMARK       I    between atoms: N_8  and  C_10 
REMARK    3  A    between atoms: C_10  and  C_12 
REMARK    4  A    between atoms: C_14  and  O_15 
REMARK    5  A    between atoms: C_22  and  C_23 
REMARK    6  A    between atoms: C_23  and  C_24 
ROOT
HETATM    1  C   UNL     1      -2.873  13.443  21.854  0.00  0.00     0.066 C 
HETATM    2  C   UNL     1      -1.879  14.198  21.193  0.00  0.00     0.035 C 
HETATM    3  C   UNL     1      -4.202  13.907  21.769  0.00  0.00     0.083 C 
HETATM    4  C   UNL     1      -4.535  15.124  21.156  0.00  0.00     0.069 C 
HETATM    5  C   UNL     1      -3.478  15.913  20.692  0.00  0.00     0.065 A 
HETATM    6  C   UNL     1      -2.153  15.500  20.722  0.00  0.00     0.020 A 
HETATM    7  N   UNL     1      -3.449  17.156  20.126  0.00  0.00    -0.277 N 
HETATM    8  H   UNL     1      -4.241  17.747  19.896  0.00  0.00     0.189 HD
HETATM    9  N   UNL     1      -2.213  17.627  19.890  0.00  0.00    -0.178 NA
HETATM   10  C   UNL     1      -1.394  16.632  20.274  0.00  0.00     0.071 A 
ENDROOT
BRANCH   1  11
HETATM   11  C   UNL     1      -2.586  12.181  22.658  0.00  0.00     0.260 C 
HETATM   12  N   UNL     1      -2.132  12.234  24.015  0.00  0.00    -0.318 N 
HETATM   13  C   UNL     1      -1.883  13.519  24.671  0.00  0.00     0.159 C 
HETATM   14  O   UNL     1      -2.865  11.136  22.066  0.00  0.00    -0.267 OA
BRANCH  12  15
HETATM   15  C   UNL     1      -1.757  11.041  24.776  0.00  0.00     0.037 A 
HETATM   16  C   UNL     1      -2.179  10.876  26.116  0.00  0.00     0.032 A 
HETATM   17  C   UNL     1      -1.708   9.848  26.940  0.00  0.00     0.039 A 
HETATM   18  C   UNL     1      -0.828   8.920  26.425  0.00  0.00     0.065 A 
HETATM   19  C   UNL     1      -0.467   8.977  25.088  0.00  0.00     0.039 A 
HETATM   20  C   UNL     1      -0.929  10.027  24.271  0.00  0.00     0.032 A 
BRANCH  18  21
HETATM   21  O   UNL     1      -0.297   7.942  27.209  0.00  0.00    -0.361 OA
HETATM   22  H   UNL     1       0.535   8.272  27.589  0.00  0.00     0.217 HD
ENDBRANCH  18  21
ENDBRANCH  12  15
ENDBRANCH   1  11
BRANCH   3  23
HETATM   23  O   UNL     1      -5.277  13.212  22.273  0.00  0.00    -0.360 OA
HETATM   24  H   UNL     1      -4.940  12.590  22.957  0.00  0.00     0.217 HD
ENDBRANCH   3  23
BRANCH  10  25
HETATM   25  C   UNL     1       0.103  16.849  20.202  0.00  0.00     0.100 C 
BRANCH  25  26
HETATM   26  C   UNL     1       0.846  16.001  21.230  0.00  0.00    -0.052 A 
HETATM   27  C   UNL     1       1.615  14.879  20.889  0.00  0.00     0.007 A 
HETATM   28  C   UNL     1       2.292  14.142  21.863  0.00  0.00     0.001 A 
HETATM   29  C   UNL     1       2.140  14.443  23.211  0.00  0.00     0.007 A 
HETATM   30  C   UNL     1       1.271  15.461  23.606  0.00  0.00    -0.061 A 
HETATM   31  C   UNL     1       0.665  16.262  22.612  0.00  0.00     0.014 A 
HETATM   32  C   UNL     1       1.003  15.657  25.074  0.00  0.00     0.048 C 
ENDBRANCH  25  26
ENDBRANCH  10  25
TORSDOF 6
ENDMDL
MODEL 8
REMARK VINA RESULT:    -8.380      3.452      7.407
REMARK INTER + INTRA:         -12.118
REMARK INTER:                 -10.764
REMARK INTRA:                  -1.353
REMARK UNBOUND:                -1.288
REMARK  6 active torsions:
REMARK  status: ('A' for Active; 'I' for Inactive)
REMARK    1  A    between atoms: C_3  and  O_4 
REMARK    2  A    between atoms: C_7  and  N_8 
REMARK       I    between atoms: N_8  and  C_10 
REMARK    3  A    between atoms: C_10  and  C_12 
REMARK    4  A    between atoms: C_14  and  O_15 
REMARK    5  A    between atoms: C_22  and  C_23 
REMARK    6  A    between atoms: C_23  and  C_24 
ROOT
HETATM    1  C   UNL     1      -0.553  16.172  21.435  0.00  0.00     0.066 C 
HETATM    2  C   UNL     1      -1.470  15.589  22.336  0.00  0.00     0.035 C 
HETATM    3  C   UNL     1      -1.080  16.785  20.280  0.00  0.00     0.083 C 
HETATM    4  C   UNL     1      -2.444  16.735  19.959  0.00  0.00     0.069 C 
HETATM    5  C   UNL     1      -3.267  15.976  20.797  0.00  0.00     0.065 A 
HETATM    6  C   UNL     1      -2.814  15.373  21.961  0.00  0.00     0.020 A 
HETATM    7  N   UNL     1      -4.597  15.666  20.731  0.00  0.00    -0.277 N 
HETATM    8  H   UNL     1      -5.268  15.980  20.039  0.00  0.00     0.189 HD
HETATM    9  N   UNL     1      -5.016  14.824  21.690  0.00  0.00    -0.178 NA
HETATM   10  C   UNL     1      -3.926  14.607  22.448  0.00  0.00     0.071 A 
ENDROOT
BRANCH   1  11
HETATM   11  C   UNL     1       0.958  16.157  21.634  0.00  0.00     0.260 C 
HETATM   12  N   UNL     1       1.735  14.968  21.448  0.00  0.00    -0.318 N 
HETATM   13  C   UNL     1       1.090  13.700  21.098  0.00  0.00     0.159 C 
HETATM   14  O   UNL     1       1.443  17.264  21.876  0.00  0.00    -0.267 OA
BRANCH  12  15
HETATM   15  C   UNL     1       3.170  14.903  21.727  0.00  0.00     0.037 A 
HETATM   16  C   UNL     1       3.643  14.461  22.984  0.00  0.00     0.032 A 
HETATM   17  C   UNL     1       4.989  14.543  23.362  0.00  0.00     0.039 A 
HETATM   18  C   UNL     1       5.913  15.033  22.463  0.00  0.00     0.065 A 
HETATM   19  C   UNL     1       5.515  15.380  21.182  0.00  0.00     0.039 A 
HETATM   20  C   UNL     1       4.156  15.313  20.817  0.00  0.00     0.032 A 
BRANCH  18  21
HETATM   21  O   UNL     1       7.220  15.190  22.813  0.00  0.00    -0.361 OA
HETATM   22  H   UNL     1       7.470  16.116  22.655  0.00  0.00     0.217 HD
ENDBRANCH  18  21
ENDBRANCH  12  15
ENDBRANCH   1  11
BRANCH   3  23
HETATM   23  O   UNL     1      -0.310  17.483  19.379  0.00  0.00    -0.360 OA
HETATM   24  H   UNL     1       0.401  16.881  19.060  0.00  0.00     0.217 HD
ENDBRANCH   3  23
BRANCH  10  25
HETATM   25  C   UNL     1      -4.024  13.639  23.607  0.00  0.00     0.100 C 
BRANCH  25  26
HETATM   26  C   UNL     1      -2.967  12.541  23.517  0.00  0.00    -0.052 A 
HETATM   27  C   UNL     1      -2.654  11.872  22.326  0.00  0.00     0.007 A 
HETATM   28  C   UNL     1      -1.668  10.884  22.287  0.00  0.00     0.001 A 
HETATM   29  C   UNL     1      -1.037  10.469  23.454  0.00  0.00     0.007 A 
HETATM   30  C   UNL     1      -1.418  11.006  24.684  0.00  0.00    -0.061 A 
HETATM   31  C   UNL     1      -2.348  12.069  24.703  0.00  0.00     0.014 A 
HETATM   32  C   UNL     1      -0.834  10.422  25.941  0.00  0.00     0.048 C 
ENDBRANCH  25  26
ENDBRANCH  10  25
TORSDOF 6
ENDMDL
MODEL 9
REMARK VINA RESULT:    -8.233      3.332      4.035
REMARK INTER + INTRA:         -11.927
REMARK INTER:                 -10.639
REMARK INTRA:                  -1.288
REMARK UNBOUND:                -1.288
REMARK  6 active torsions:
REMARK  status: ('A' for Active; 'I' for Inactive)
REMARK    1  A    between atoms: C_3  and  O_4 
REMARK    2  A    between atoms: C_7  and  N_8 
REMARK       I    between atoms: N_8  and  C_10 
REMARK    3  A    between atoms: C_10  and  C_12 
REMARK    4  A    between atoms: C_14  and  O_15 
REMARK    5  A    between atoms: C_22  and  C_23 
REMARK    6  A    between atoms: C_23  and  C_24 
ROOT
HETATM    1  C   UNL     1      -1.124  12.541  22.160  0.00  0.00     0.066 C 
HETATM    2  C   UNL     1      -0.470  13.775  21.957  0.00  0.00     0.035 C 
HETATM    3  C   UNL     1      -2.363  12.350  21.515  0.00  0.00     0.083 C 
HETATM    4  C   UNL     1      -2.996  13.369  20.788  0.00  0.00     0.069 C 
HETATM    5  C   UNL     1      -2.384  14.626  20.789  0.00  0.00     0.065 A 
HETATM    6  C   UNL     1      -1.152  14.869  21.382  0.00  0.00     0.020 A 
HETATM    7  N   UNL     1      -2.763  15.825  20.255  0.00  0.00    -0.277 N 
HETATM    8  H   UNL     1      -3.590  16.018  19.700  0.00  0.00     0.189 HD
HETATM    9  N   UNL     1      -1.939  16.845  20.547  0.00  0.00    -0.178 NA
HETATM   10  C   UNL     1      -0.949  16.284  21.264  0.00  0.00     0.071 A 
ENDROOT
BRANCH   1  11
HETATM   11  C   UNL     1      -0.577  11.425  23.042  0.00  0.00     0.260 C 
HETATM   12  N   UNL     1      -0.672  11.472  24.470  0.00  0.00    -0.318 N 
HETATM   13  C   UNL     1      -1.268  12.629  25.142  0.00  0.00     0.159 C 
HETATM   14  O   UNL     1      -0.136  10.460  22.413  0.00  0.00    -0.267 OA
BRANCH  12  15
HETATM   15  C   UNL     1      -0.069  10.463  25.342  0.00  0.00     0.037 A 
HETATM   16  C   UNL     1      -0.854   9.764  26.288  0.00  0.00     0.032 A 
HETATM   17  C   UNL     1      -0.301   8.921  27.259  0.00  0.00     0.039 A 
HETATM   18  C   UNL     1       1.063   8.718  27.280  0.00  0.00     0.065 A 
HETATM   19  C   UNL     1       1.862   9.297  26.308  0.00  0.00     0.039 A 
HETATM   20  C   UNL     1       1.301  10.160  25.346  0.00  0.00     0.032 A 
BRANCH  18  21
HETATM   21  O   UNL     1       1.646   7.957  28.246  0.00  0.00    -0.361 OA
HETATM   22  H   UNL     1       1.585   8.435  29.091  0.00  0.00     0.217 HD
ENDBRANCH  18  21
ENDBRANCH  12  15
ENDBRANCH   1  11
BRANCH   3  23
HETATM   23  O   UNL     1      -3.051  11.159  21.539  0.00  0.00    -0.360 OA
HETATM   24  H   UNL     1      -3.947  11.320  21.164  0.00  0.00     0.217 HD
ENDBRANCH   3  23
BRANCH  10  25
HETATM   25  C   UNL     1       0.144  17.173  21.820  0.00  0.00     0.100 C 
BRANCH  25  26
HETATM   26  C   UNL     1       1.533  16.644  21.471  0.00  0.00    -0.052 A 
HETATM   27  C   UNL     1       2.062  16.673  20.174  0.00  0.00     0.007 A 
HETATM   28  C   UNL     1       3.345  16.192  19.903  0.00  0.00     0.001 A 
HETATM   29  C   UNL     1       4.095  15.579  20.900  0.00  0.00     0.007 A 
HETATM   30  C   UNL     1       3.552  15.399  22.173  0.00  0.00    -0.061 A 
HETATM   31  C   UNL     1       2.293  15.971  22.462  0.00  0.00     0.014 A 
HETATM   32  C   UNL     1       4.321  14.590  23.181  0.00  0.00     0.048 C 
ENDBRANCH  25  26
ENDBRANCH  10  25
TORSDOF 6
ENDMDL
