REMARK  6 active torsions:
REMARK  status: ('A' for Active; 'I' for Inactive)
REMARK    1  A    between atoms: C_3  and  O_4 
REMARK    2  A    between atoms: C_7  and  N_8 
REMARK       I    between atoms: N_8  and  C_10 
REMARK    3  A    between atoms: C_10  and  C_12 
REMARK    4  A    between atoms: C_14  and  O_15 
REMARK    5  A    between atoms: C_22  and  C_23 
REMARK    6  A    between atoms: C_23  and  C_24 
ROOT
HETATM    1  C   UNL     1      -5.145   1.153  -0.231  0.00  0.00     0.066 C 
HETATM    2  C   UNL     1      -5.791  -0.085  -0.023  0.00  0.00     0.035 C 
HETATM    3  C   UNL     1      -5.956   2.262  -0.548  0.00  0.00     0.083 C 
HETATM    4  C   UNL     1      -7.337   2.145  -0.765  0.00  0.00     0.069 C 
HETATM    5  C   UNL     1      -7.879   0.857  -0.732  0.00  0.00     0.065 A 
HETATM    6  C   UNL     1      -7.139  -0.269  -0.399  0.00  0.00     0.020 A 
HETATM    7  N   UNL     1      -9.143   0.394  -0.968  0.00  0.00    -0.277 N 
HETATM    8  H   UNL     1      -9.968   0.941  -1.188  0.00  0.00     0.189 HD
HETATM    9  N   UNL     1      -9.258  -0.944  -0.925  0.00  0.00    -0.178 NA
HETATM   10  C   UNL     1      -8.027  -1.378  -0.601  0.00  0.00     0.071 A 
ENDROOT
BRANCH   1  11
HETATM   11  C   UNL     1      -3.636   1.347  -0.149  0.00  0.00     0.260 C 
HETATM   12  N   UNL     1      -2.718   0.301  -0.487  0.00  0.00    -0.318 N 
HETATM   13  C   UNL     1      -3.205  -1.021  -0.887  0.00  0.00     0.159 C 
HETATM   14  O   UNL     1      -3.293   2.495   0.143  0.00  0.00    -0.267 OA
BRANCH  12  15
HETATM   15  C   UNL     1      -1.269   0.429  -0.324  0.00  0.00     0.037 A 
HETATM   16  C   UNL     1      -0.392  -0.535  -0.872  0.00  0.00     0.032 A 
HETATM   17  C   UNL     1       0.981  -0.556  -0.600  0.00  0.00     0.039 A 
HETATM   18  C   UNL     1       1.525   0.427   0.200  0.00  0.00     0.065 A 
HETATM   19  C   UNL     1       0.725   1.454   0.674  0.00  0.00     0.039 A 
HETATM   20  C   UNL     1      -0.659   1.456   0.412  0.00  0.00     0.032 A 
BRANCH  18  21
HETATM   21  O   UNL     1       2.843   0.407   0.541  0.00  0.00    -0.361 OA
HETATM   22  H   UNL     1       3.210  -0.459   0.294  0.00  0.00     0.217 HD
ENDBRANCH  18  21
ENDBRANCH  12  15
ENDBRANCH   1  11
BRANCH   3  23
HETATM   23  O   UNL     1      -5.469   3.543  -0.668  0.00  0.00    -0.360 OA
HETATM   24  H   UNL     1      -4.532   3.539  -0.366  0.00  0.00     0.217 HD
ENDBRANCH   3  23
BRANCH  10  25
HETATM   25  C   UNL     1      -7.775  -2.869  -0.524  0.00  0.00     0.100 C 
BRANCH  25  26
HETATM   26  C   UNL     1      -6.890  -3.352  -1.670  0.00  0.00    -0.052 A 
HETATM   27  C   UNL     1      -6.752  -2.657  -2.879  0.00  0.00     0.007 A 
HETATM   28  C   UNL     1      -5.918  -3.129  -3.895  0.00  0.00     0.001 A 
HETATM   29  C   UNL     1      -5.277  -4.356  -3.771  0.00  0.00     0.007 A 
HETATM   30  C   UNL     1      -5.499  -5.150  -2.645  0.00  0.00    -0.061 A 
HETATM   31  C   UNL     1      -6.268  -4.624  -1.583  0.00  0.00     0.014 A 
HETATM   32  C   UNL     1      -4.923  -6.539  -2.613  0.00  0.00     0.048 C 
ENDBRANCH  25  26
ENDBRANCH  10  25
TORSDOF 6
