MODEL 1
REMARK VINA RESULT:    -7.534      0.000      0.000
REMARK INTER + INTRA:         -12.705
REMARK INTER:                 -10.562
REMARK INTRA:                  -2.143
REMARK UNBOUND:                -2.088
REMARK  8 active torsions:
REMARK  status: ('A' for Active; 'I' for Inactive)
REMARK    1  A    between atoms: C_2  and  C_3 
REMARK    2  A    between atoms: C_3  and  N_4 
REMARK    3  A    between atoms: N_4  and  S_6 
REMARK    4  A    between atoms: S_6  and  C_9 
REMARK    5  A    between atoms: C_11  and  C_17 
REMARK    6  A    between atoms: C_12  and  O_13 
REMARK    7  A    between atoms: C_15  and  O_16 
REMARK    8  A    between atoms: N_23  and  C_24 
ROOT
HETATM    1  C   UNL     1       6.689  11.816  21.038  0.00  0.00     0.108 A 
HETATM    2  C   UNL     1       7.097  12.400  22.246  0.00  0.00     0.046 A 
HETATM    3  C   UNL     1       8.410  12.842  22.430  0.00  0.00     0.047 A 
HETATM    4  C   UNL     1       9.277  12.822  21.331  0.00  0.00     0.082 A 
HETATM    5  C   UNL     1       8.867  12.283  20.110  0.00  0.00     0.075 A 
HETATM    6  C   UNL     1       7.579  11.758  19.969  0.00  0.00     0.091 A 
ENDROOT
BRANCH   3   7
HETATM    7  C   UNL     1       8.853  13.384  23.734  0.00  0.00     0.172 A 
HETATM    8  N   UNL     1      10.034  13.099  24.225  0.00  0.00    -0.151 NA
HETATM    9  N   UNL     1      10.129  13.882  25.339  0.00  0.00    -0.226 N 
HETATM   10  H   UNL     1      10.944  13.906  25.938  0.00  0.00     0.194 HD
HETATM   11  C   UNL     1       8.980  14.650  25.513  0.00  0.00     0.349 A 
HETATM   12  O   UNL     1       8.797  15.439  26.419  0.00  0.00    -0.245 OA
HETATM   13  N   UNL     1       8.144  14.287  24.480  0.00  0.00    -0.241 N 
BRANCH  13  14
HETATM   14  C   UNL     1       6.792  14.674  24.425  0.00  0.00     0.084 A 
HETATM   15  C   UNL     1       5.783  13.925  25.045  0.00  0.00     0.143 A 
HETATM   16  F   UNL     1       6.093  12.831  25.757  0.00  0.00    -0.204 F 
HETATM   17  C   UNL     1       4.448  14.319  24.968  0.00  0.00     0.044 A 
HETATM   18  C   UNL     1       4.105  15.454  24.233  0.00  0.00     0.003 A 
HETATM   19  C   UNL     1       5.099  16.199  23.597  0.00  0.00     0.002 A 
HETATM   20  C   UNL     1       6.440  15.826  23.715  0.00  0.00     0.033 A 
ENDBRANCH  13  14
ENDBRANCH   3   7
BRANCH   4  21
HETATM   21  O   UNL     1      10.547  13.331  21.365  0.00  0.00    -0.360 OA
HETATM   22  H   UNL     1      10.502  14.257  21.689  0.00  0.00     0.217 HD
ENDBRANCH   4  21
BRANCH   1  23
HETATM   23  S   UNL     1       5.133  10.949  21.064  0.00  0.00     0.246 S 
HETATM   24  O   UNL     1       5.422   9.600  21.516  0.00  0.00    -0.206 OA
HETATM   25  O   UNL     1       4.439  11.139  19.812  0.00  0.00    -0.206 OA
BRANCH  23  26
HETATM   26  N   UNL     1       4.200  11.697  22.316  0.00  0.00    -0.210 NA
HETATM   27  C   UNL     1       3.574  10.651  23.175  0.00  0.00     0.129 C 
BRANCH  26  28
HETATM   28  C   UNL     1       3.209  12.693  21.799  0.00  0.00     0.106 C 
BRANCH  28  29
HETATM   29  C   UNL     1       1.911  12.746  22.610  0.00  0.00     0.011 C 
HETATM   30  C   UNL     1       1.154  14.057  22.454  0.00  0.00     0.006 C 
ENDBRANCH  28  29
ENDBRANCH  26  28
ENDBRANCH  23  26
ENDBRANCH   1  23
BRANCH   6  31
HETATM   31  O   UNL     1       7.205  11.241  18.765  0.00  0.00    -0.359 OA
HETATM   32  H   UNL     1       6.330  10.823  18.845  0.00  0.00     0.217 HD
ENDBRANCH   6  31
TORSDOF 8
ENDMDL
MODEL 2
REMARK VINA RESULT:    -7.530      1.925      2.964
REMARK INTER + INTRA:         -12.700
REMARK INTER:                 -10.381
REMARK INTRA:                  -2.319
REMARK UNBOUND:                -2.088
REMARK  8 active torsions:
REMARK  status: ('A' for Active; 'I' for Inactive)
REMARK    1  A    between atoms: C_2  and  C_3 
REMARK    2  A    between atoms: C_3  and  N_4 
REMARK    3  A    between atoms: N_4  and  S_6 
REMARK    4  A    between atoms: S_6  and  C_9 
REMARK    5  A    between atoms: C_11  and  C_17 
REMARK    6  A    between atoms: C_12  and  O_13 
REMARK    7  A    between atoms: C_15  and  O_16 
REMARK    8  A    between atoms: N_23  and  C_24 
ROOT
HETATM    1  C   UNL     1       6.701  11.119  21.152  0.00  0.00     0.108 A 
HETATM    2  C   UNL     1       7.072  11.724  22.362  0.00  0.00     0.046 A 
HETATM    3  C   UNL     1       8.152  12.609  22.428  0.00  0.00     0.047 A 
HETATM    4  C   UNL     1       8.768  12.995  21.231  0.00  0.00     0.082 A 
HETATM    5  C   UNL     1       8.376  12.433  20.015  0.00  0.00     0.075 A 
HETATM    6  C   UNL     1       7.356  11.476  19.977  0.00  0.00     0.091 A 
ENDROOT
BRANCH   3   7
HETATM    7  C   UNL     1       8.587  13.181  23.722  0.00  0.00     0.172 A 
HETATM    8  N   UNL     1       9.751  12.881  24.242  0.00  0.00    -0.151 NA
HETATM    9  N   UNL     1       9.848  13.697  25.333  0.00  0.00    -0.226 N 
HETATM   10  H   UNL     1      10.654  13.719  25.945  0.00  0.00     0.194 HD
HETATM   11  C   UNL     1       8.718  14.499  25.463  0.00  0.00     0.349 A 
HETATM   12  O   UNL     1       8.541  15.322  26.340  0.00  0.00    -0.245 OA
HETATM   13  N   UNL     1       7.890  14.126  24.427  0.00  0.00    -0.241 N 
BRANCH  13  14
HETATM   14  C   UNL     1       6.550  14.545  24.336  0.00  0.00     0.084 A 
HETATM   15  C   UNL     1       5.495  13.765  24.829  0.00  0.00     0.143 A 
HETATM   16  F   UNL     1       5.747  12.603  25.452  0.00  0.00    -0.204 F 
HETATM   17  C   UNL     1       4.174  14.193  24.717  0.00  0.00     0.044 A 
HETATM   18  C   UNL     1       3.892  15.399  24.074  0.00  0.00     0.003 A 
HETATM   19  C   UNL     1       4.931  16.177  23.564  0.00  0.00     0.002 A 
HETATM   20  C   UNL     1       6.257  15.765  23.718  0.00  0.00     0.033 A 
ENDBRANCH  13  14
ENDBRANCH   3   7
BRANCH   4  21
HETATM   21  O   UNL     1       9.758  13.938  21.165  0.00  0.00    -0.360 OA
HETATM   22  H   UNL     1      10.623  13.477  21.105  0.00  0.00     0.217 HD
ENDBRANCH   4  21
BRANCH   1  23
HETATM   23  S   UNL     1       5.586   9.735  21.270  0.00  0.00     0.246 S 
HETATM   24  O   UNL     1       4.598   9.913  20.220  0.00  0.00    -0.206 OA
HETATM   25  O   UNL     1       5.142   9.571  22.634  0.00  0.00    -0.206 OA
BRANCH  23  26
HETATM   26  N   UNL     1       6.519   8.342  20.835  0.00  0.00    -0.210 NA
HETATM   27  C   UNL     1       5.775   7.528  19.831  0.00  0.00     0.129 C 
BRANCH  26  28
HETATM   28  C   UNL     1       6.966   7.540  22.017  0.00  0.00     0.106 C 
BRANCH  28  29
HETATM   29  C   UNL     1       8.371   7.901  22.508  0.00  0.00     0.011 C 
HETATM   30  C   UNL     1       8.382   8.545  23.887  0.00  0.00     0.006 C 
ENDBRANCH  28  29
ENDBRANCH  26  28
ENDBRANCH  23  26
ENDBRANCH   1  23
BRANCH   6  31
HETATM   31  O   UNL     1       6.992  10.947  18.776  0.00  0.00    -0.359 OA
HETATM   32  H   UNL     1       6.908  11.657  18.116  0.00  0.00     0.217 HD
ENDBRANCH   6  31
TORSDOF 8
ENDMDL
MODEL 3
REMARK VINA RESULT:    -7.331      1.977      3.003
REMARK INTER + INTRA:         -12.419
REMARK INTER:                 -10.207
REMARK INTRA:                  -2.213
REMARK UNBOUND:                -2.088
REMARK  8 active torsions:
REMARK  status: ('A' for Active; 'I' for Inactive)
REMARK    1  A    between atoms: C_2  and  C_3 
REMARK    2  A    between atoms: C_3  and  N_4 
REMARK    3  A    between atoms: N_4  and  S_6 
REMARK    4  A    between atoms: S_6  and  C_9 
REMARK    5  A    between atoms: C_11  and  C_17 
REMARK    6  A    between atoms: C_12  and  O_13 
REMARK    7  A    between atoms: C_15  and  O_16 
REMARK    8  A    between atoms: N_23  and  C_24 
ROOT
HETATM    1  C   UNL     1       6.495  11.438  21.065  0.00  0.00     0.108 A 
HETATM    2  C   UNL     1       6.754  12.041  22.304  0.00  0.00     0.046 A 
HETATM    3  C   UNL     1       7.941  12.742  22.534  0.00  0.00     0.047 A 
HETATM    4  C   UNL     1       8.806  12.955  21.454  0.00  0.00     0.082 A 
HETATM    5  C   UNL     1       8.535  12.397  20.204  0.00  0.00     0.075 A 
HETATM    6  C   UNL     1       7.389  11.617  20.014  0.00  0.00     0.091 A 
ENDROOT
BRANCH   3   7
HETATM    7  C   UNL     1       8.242  13.308  23.869  0.00  0.00     0.172 A 
HETATM    8  N   UNL     1       9.389  13.084  24.460  0.00  0.00    -0.151 NA
HETATM    9  N   UNL     1       9.348  13.872  25.575  0.00  0.00    -0.226 N 
HETATM   10  H   UNL     1      10.107  13.939  26.241  0.00  0.00     0.194 HD
HETATM   11  C   UNL     1       8.152  14.581  25.645  0.00  0.00     0.349 A 
HETATM   12  O   UNL     1       7.852  15.362  26.527  0.00  0.00    -0.245 OA
HETATM   13  N   UNL     1       7.427  14.175  24.546  0.00  0.00    -0.241 N 
BRANCH  13  14
HETATM   14  C   UNL     1       6.067  14.493  24.373  0.00  0.00     0.084 A 
HETATM   15  C   UNL     1       5.656  15.614  23.641  0.00  0.00     0.143 A 
HETATM   16  F   UNL     1       6.564  16.398  23.039  0.00  0.00    -0.204 F 
HETATM   17  C   UNL     1       4.304  15.917  23.492  0.00  0.00     0.044 A 
HETATM   18  C   UNL     1       3.345  15.114  24.110  0.00  0.00     0.003 A 
HETATM   19  C   UNL     1       3.742  14.003  24.856  0.00  0.00     0.002 A 
HETATM   20  C   UNL     1       5.096  13.678  24.965  0.00  0.00     0.033 A 
ENDBRANCH  13  14
ENDBRANCH   3   7
BRANCH   4  21
HETATM   21  O   UNL     1       9.938  13.720  21.537  0.00  0.00    -0.360 OA
HETATM   22  H   UNL     1      10.699  13.131  21.732  0.00  0.00     0.217 HD
ENDBRANCH   4  21
BRANCH   1  23
HETATM   23  S   UNL     1       5.158  10.260  21.023  0.00  0.00     0.246 S 
HETATM   24  O   UNL     1       4.395  10.549  19.822  0.00  0.00    -0.206 OA
HETATM   25  O   UNL     1       4.481  10.234  22.299  0.00  0.00    -0.206 OA
BRANCH  23  26
HETATM   26  N   UNL     1       5.900   8.716  20.774  0.00  0.00    -0.210 NA
HETATM   27  C   UNL     1       5.028   7.868  19.910  0.00  0.00     0.129 C 
BRANCH  26  28
HETATM   28  C   UNL     1       6.290   8.036  22.049  0.00  0.00     0.106 C 
BRANCH  28  29
HETATM   29  C   UNL     1       7.767   8.213  22.412  0.00  0.00     0.011 C 
HETATM   30  C   UNL     1       7.983   8.837  23.782  0.00  0.00     0.006 C 
ENDBRANCH  28  29
ENDBRANCH  26  28
ENDBRANCH  23  26
ENDBRANCH   1  23
BRANCH   6  31
HETATM   31  O   UNL     1       7.149  11.086  18.783  0.00  0.00    -0.359 OA
HETATM   32  H   UNL     1       7.511  11.673  18.096  0.00  0.00     0.217 HD
ENDBRANCH   6  31
TORSDOF 8
ENDMDL
MODEL 4
REMARK VINA RESULT:    -7.254      2.104      5.382
REMARK INTER + INTRA:         -12.311
REMARK INTER:                  -9.602
REMARK INTRA:                  -2.709
REMARK UNBOUND:                -2.088
REMARK  8 active torsions:
REMARK  status: ('A' for Active; 'I' for Inactive)
REMARK    1  A    between atoms: C_2  and  C_3 
REMARK    2  A    between atoms: C_3  and  N_4 
REMARK    3  A    between atoms: N_4  and  S_6 
REMARK    4  A    between atoms: S_6  and  C_9 
REMARK    5  A    between atoms: C_11  and  C_17 
REMARK    6  A    between atoms: C_12  and  O_13 
REMARK    7  A    between atoms: C_15  and  O_16 
REMARK    8  A    between atoms: N_23  and  C_24 
ROOT
HETATM    1  C   UNL     1       7.712  12.241  22.918  0.00  0.00     0.108 A 
HETATM    2  C   UNL     1       6.638  11.467  23.380  0.00  0.00     0.046 A 
HETATM    3  C   UNL     1       5.533  11.203  22.566  0.00  0.00     0.047 A 
HETATM    4  C   UNL     1       5.583  11.609  21.226  0.00  0.00     0.082 A 
HETATM    5  C   UNL     1       6.669  12.342  20.745  0.00  0.00     0.075 A 
HETATM    6  C   UNL     1       7.725  12.679  21.597  0.00  0.00     0.091 A 
ENDROOT
BRANCH   3   7
HETATM    7  C   UNL     1       4.367  10.452  23.086  0.00  0.00     0.172 A 
HETATM    8  N   UNL     1       4.382   9.145  23.170  0.00  0.00    -0.151 NA
HETATM    9  N   UNL     1       3.218   8.840  23.816  0.00  0.00    -0.226 N 
HETATM   10  H   UNL     1       2.941   7.897  24.053  0.00  0.00     0.194 HD
HETATM   11  C   UNL     1       2.497   9.992  24.122  0.00  0.00     0.349 A 
HETATM   12  O   UNL     1       1.429  10.015  24.702  0.00  0.00    -0.245 OA
HETATM   13  N   UNL     1       3.241  11.031  23.608  0.00  0.00    -0.241 N 
BRANCH  13  14
HETATM   14  C   UNL     1       2.748  12.345  23.513  0.00  0.00     0.084 A 
HETATM   15  C   UNL     1       3.085  13.331  24.449  0.00  0.00     0.143 A 
HETATM   16  F   UNL     1       3.938  13.053  25.448  0.00  0.00    -0.204 F 
HETATM   17  C   UNL     1       2.576  14.625  24.344  0.00  0.00     0.044 A 
HETATM   18  C   UNL     1       1.688  14.934  23.313  0.00  0.00     0.003 A 
HETATM   19  C   UNL     1       1.331  13.956  22.384  0.00  0.00     0.002 A 
HETATM   20  C   UNL     1       1.880  12.674  22.468  0.00  0.00     0.033 A 
ENDBRANCH  13  14
ENDBRANCH   3   7
BRANCH   4  21
HETATM   21  O   UNL     1       4.609  11.308  20.312  0.00  0.00    -0.360 OA
HETATM   22  H   UNL     1       3.923  10.764  20.756  0.00  0.00     0.217 HD
ENDBRANCH   4  21
BRANCH   1  23
HETATM   23  S   UNL     1       8.853  12.827  24.155  0.00  0.00     0.246 S 
HETATM   24  O   UNL     1      10.185  12.617  23.617  0.00  0.00    -0.206 OA
HETATM   25  O   UNL     1       8.517  12.267  25.443  0.00  0.00    -0.206 OA
BRANCH  23  26
HETATM   26  N   UNL     1       8.620  14.541  24.235  0.00  0.00    -0.210 NA
HETATM   27  C   UNL     1       9.941  15.228  24.313  0.00  0.00     0.129 C 
BRANCH  26  28
HETATM   28  C   UNL     1       7.683  14.959  25.324  0.00  0.00     0.106 C 
BRANCH  28  29
HETATM   29  C   UNL     1       6.287  15.339  24.821  0.00  0.00     0.011 C 
HETATM   30  C   UNL     1       6.255  15.706  23.346  0.00  0.00     0.006 C 
ENDBRANCH  28  29
ENDBRANCH  26  28
ENDBRANCH  23  26
ENDBRANCH   1  23
BRANCH   6  31
HETATM   31  O   UNL     1       8.772  13.393  21.100  0.00  0.00    -0.359 OA
HETATM   32  H   UNL     1       9.325  13.719  21.831  0.00  0.00     0.217 HD
ENDBRANCH   6  31
TORSDOF 8
ENDMDL
MODEL 5
REMARK VINA RESULT:    -7.232      2.160      2.973
REMARK INTER + INTRA:         -12.279
REMARK INTER:                 -10.312
REMARK INTRA:                  -1.967
REMARK UNBOUND:                -2.088
REMARK  8 active torsions:
REMARK  status: ('A' for Active; 'I' for Inactive)
REMARK    1  A    between atoms: C_2  and  C_3 
REMARK    2  A    between atoms: C_3  and  N_4 
REMARK    3  A    between atoms: N_4  and  S_6 
REMARK    4  A    between atoms: S_6  and  C_9 
REMARK    5  A    between atoms: C_11  and  C_17 
REMARK    6  A    between atoms: C_12  and  O_13 
REMARK    7  A    between atoms: C_15  and  O_16 
REMARK    8  A    between atoms: N_23  and  C_24 
ROOT
HETATM    1  C   UNL     1       5.143  11.083  22.141  0.00  0.00     0.108 A 
HETATM    2  C   UNL     1       6.236  11.931  21.907  0.00  0.00     0.046 A 
HETATM    3  C   UNL     1       7.549  11.461  22.001  0.00  0.00     0.047 A 
HETATM    4  C   UNL     1       7.751  10.088  22.191  0.00  0.00     0.082 A 
HETATM    5  C   UNL     1       6.667   9.229  22.380  0.00  0.00     0.075 A 
HETATM    6  C   UNL     1       5.362   9.730  22.378  0.00  0.00     0.091 A 
ENDROOT
BRANCH   3   7
HETATM    7  C   UNL     1       8.698  12.378  21.831  0.00  0.00     0.172 A 
HETATM    8  N   UNL     1       9.760  12.022  21.151  0.00  0.00    -0.151 NA
HETATM    9  N   UNL     1      10.516  13.158  21.097  0.00  0.00    -0.226 N 
HETATM   10  H   UNL     1      11.404  13.216  20.615  0.00  0.00     0.194 HD
HETATM   11  C   UNL     1       9.890  14.211  21.758  0.00  0.00     0.349 A 
HETATM   12  O   UNL     1      10.335  15.337  21.860  0.00  0.00    -0.245 OA
HETATM   13  N   UNL     1       8.724  13.678  22.263  0.00  0.00    -0.241 N 
BRANCH  13  14
HETATM   14  C   UNL     1       7.912  14.362  23.186  0.00  0.00     0.084 A 
HETATM   15  C   UNL     1       7.998  14.125  24.564  0.00  0.00     0.143 A 
HETATM   16  F   UNL     1       8.904  13.260  25.047  0.00  0.00    -0.204 F 
HETATM   17  C   UNL     1       7.176  14.804  25.462  0.00  0.00     0.044 A 
HETATM   18  C   UNL     1       6.228  15.708  24.980  0.00  0.00     0.003 A 
HETATM   19  C   UNL     1       6.121  15.941  23.608  0.00  0.00     0.002 A 
HETATM   20  C   UNL     1       6.978  15.290  22.717  0.00  0.00     0.033 A 
ENDBRANCH  13  14
ENDBRANCH   3   7
BRANCH   4  21
HETATM   21  O   UNL     1       8.988   9.502  22.187  0.00  0.00    -0.360 OA
HETATM   22  H   UNL     1       9.422   9.685  23.049  0.00  0.00     0.217 HD
ENDBRANCH   4  21
BRANCH   1  23
HETATM   23  S   UNL     1       3.565  11.877  22.378  0.00  0.00     0.246 S 
HETATM   24  O   UNL     1       2.766  10.969  23.182  0.00  0.00    -0.206 OA
HETATM   25  O   UNL     1       3.047  12.338  21.111  0.00  0.00    -0.206 OA
BRANCH  23  26
HETATM   26  N   UNL     1       3.880  13.262  23.369  0.00  0.00    -0.210 NA
HETATM   27  C   UNL     1       4.007  12.846  24.795  0.00  0.00     0.129 C 
BRANCH  26  28
HETATM   28  C   UNL     1       2.888  14.365  23.172  0.00  0.00     0.106 C 
BRANCH  28  29
HETATM   29  C   UNL     1       1.929  14.547  24.352  0.00  0.00     0.011 C 
HETATM   30  C   UNL     1       0.496  14.153  24.033  0.00  0.00     0.006 C 
ENDBRANCH  28  29
ENDBRANCH  26  28
ENDBRANCH  23  26
ENDBRANCH   1  23
BRANCH   6  31
HETATM   31  O   UNL     1       4.324   8.868  22.562  0.00  0.00    -0.359 OA
HETATM   32  H   UNL     1       3.838   8.754  21.726  0.00  0.00     0.217 HD
ENDBRANCH   6  31
TORSDOF 8
ENDMDL
MODEL 6
REMARK VINA RESULT:    -7.116      3.030      6.748
REMARK INTER + INTRA:         -12.117
REMARK INTER:                  -9.456
REMARK INTRA:                  -2.660
REMARK UNBOUND:                -2.088
REMARK  8 active torsions:
REMARK  status: ('A' for Active; 'I' for Inactive)
REMARK    1  A    between atoms: C_2  and  C_3 
REMARK    2  A    between atoms: C_3  and  N_4 
REMARK    3  A    between atoms: N_4  and  S_6 
REMARK    4  A    between atoms: S_6  and  C_9 
REMARK    5  A    between atoms: C_11  and  C_17 
REMARK    6  A    between atoms: C_12  and  O_13 
REMARK    7  A    between atoms: C_15  and  O_16 
REMARK    8  A    between atoms: N_23  and  C_24 
ROOT
HETATM    1  C   UNL     1       7.908  13.519  21.492  0.00  0.00     0.108 A 
HETATM    2  C   UNL     1       7.632  12.399  20.695  0.00  0.00     0.046 A 
HETATM    3  C   UNL     1       6.362  11.814  20.684  0.00  0.00     0.047 A 
HETATM    4  C   UNL     1       5.329  12.457  21.375  0.00  0.00     0.082 A 
HETATM    5  C   UNL     1       5.584  13.599  22.136  0.00  0.00     0.075 A 
HETATM    6  C   UNL     1       6.880  14.119  22.214  0.00  0.00     0.091 A 
ENDROOT
BRANCH   3   7
HETATM    7  C   UNL     1       6.099  10.584  19.902  0.00  0.00     0.172 A 
HETATM    8  N   UNL     1       5.961  10.622  18.600  0.00  0.00    -0.151 NA
HETATM    9  N   UNL     1       5.880   9.308  18.236  0.00  0.00    -0.226 N 
HETATM   10  H   UNL     1       5.787   8.998  17.278  0.00  0.00     0.194 HD
HETATM   11  C   UNL     1       5.973   8.473  19.347  0.00  0.00     0.349 A 
HETATM   12  O   UNL     1       5.937   7.258  19.313  0.00  0.00    -0.245 OA
HETATM   13  N   UNL     1       6.078   9.320  20.428  0.00  0.00    -0.241 N 
BRANCH  13  14
HETATM   14  C   UNL     1       5.970   8.873  21.757  0.00  0.00     0.084 A 
HETATM   15  C   UNL     1       7.085   8.779  22.600  0.00  0.00     0.143 A 
HETATM   16  F   UNL     1       8.295   9.164  22.165  0.00  0.00    -0.204 F 
HETATM   17  C   UNL     1       6.958   8.322  23.910  0.00  0.00     0.044 A 
HETATM   18  C   UNL     1       5.708   7.918  24.381  0.00  0.00     0.003 A 
HETATM   19  C   UNL     1       4.592   7.991  23.547  0.00  0.00     0.002 A 
HETATM   20  C   UNL     1       4.717   8.492  22.249  0.00  0.00     0.033 A 
ENDBRANCH  13  14
ENDBRANCH   3   7
BRANCH   4  21
HETATM   21  O   UNL     1       4.026  12.037  21.342  0.00  0.00    -0.360 OA
HETATM   22  H   UNL     1       3.864  11.593  20.482  0.00  0.00     0.217 HD
ENDBRANCH   4  21
BRANCH   1  23
HETATM   23  S   UNL     1       9.629  13.922  21.721  0.00  0.00     0.246 S 
HETATM   24  O   UNL     1       9.755  15.345  21.462  0.00  0.00    -0.206 OA
HETATM   25  O   UNL     1      10.456  12.995  20.984  0.00  0.00    -0.206 OA
BRANCH  23  26
HETATM   26  N   UNL     1       9.943  13.700  23.409  0.00  0.00    -0.210 NA
HETATM   27  C   UNL     1      10.628  14.905  23.959  0.00  0.00     0.129 C 
BRANCH  26  28
HETATM   28  C   UNL     1      10.671  12.429  23.712  0.00  0.00     0.106 C 
BRANCH  28  29
HETATM   29  C   UNL     1       9.771  11.321  24.267  0.00  0.00     0.011 C 
HETATM   30  C   UNL     1       8.407  11.820  24.718  0.00  0.00     0.006 C 
ENDBRANCH  28  29
ENDBRANCH  26  28
ENDBRANCH  23  26
ENDBRANCH   1  23
BRANCH   6  31
HETATM   31  O   UNL     1       7.099  15.236  22.961  0.00  0.00    -0.359 OA
HETATM   32  H   UNL     1       6.499  15.242  23.727  0.00  0.00     0.217 HD
ENDBRANCH   6  31
TORSDOF 8
ENDMDL
MODEL 7
REMARK VINA RESULT:    -7.099      2.498      4.193
REMARK INTER + INTRA:         -12.092
REMARK INTER:                  -9.547
REMARK INTRA:                  -2.545
REMARK UNBOUND:                -2.088
REMARK  8 active torsions:
REMARK  status: ('A' for Active; 'I' for Inactive)
REMARK    1  A    between atoms: C_2  and  C_3 
REMARK    2  A    between atoms: C_3  and  N_4 
REMARK    3  A    between atoms: N_4  and  S_6 
REMARK    4  A    between atoms: S_6  and  C_9 
REMARK    5  A    between atoms: C_11  and  C_17 
REMARK    6  A    between atoms: C_12  and  O_13 
REMARK    7  A    between atoms: C_15  and  O_16 
REMARK    8  A    between atoms: N_23  and  C_24 
ROOT
HETATM    1  C   UNL     1       6.592  12.270  20.757  0.00  0.00     0.108 A 
HETATM    2  C   UNL     1       5.733  12.975  21.612  0.00  0.00     0.046 A 
HETATM    3  C   UNL     1       6.232  13.881  22.552  0.00  0.00     0.047 A 
HETATM    4  C   UNL     1       7.600  14.180  22.526  0.00  0.00     0.082 A 
HETATM    5  C   UNL     1       8.456  13.516  21.647  0.00  0.00     0.075 A 
HETATM    6  C   UNL     1       7.957  12.542  20.776  0.00  0.00     0.091 A 
ENDROOT
BRANCH   3   7
HETATM    7  C   UNL     1       5.327  14.563  23.505  0.00  0.00     0.172 A 
HETATM    8  N   UNL     1       5.425  15.848  23.738  0.00  0.00    -0.151 NA
HETATM    9  N   UNL     1       4.354  16.124  24.539  0.00  0.00    -0.226 N 
HETATM   10  H   UNL     1       4.136  17.051  24.881  0.00  0.00     0.194 HD
HETATM   11  C   UNL     1       3.603  14.977  24.786  0.00  0.00     0.349 A 
HETATM   12  O   UNL     1       2.593  14.935  25.461  0.00  0.00    -0.245 OA
HETATM   13  N   UNL     1       4.269  13.962  24.136  0.00  0.00    -0.241 N 
BRANCH  13  14
HETATM   14  C   UNL     1       3.955  12.604  24.324  0.00  0.00     0.084 A 
HETATM   15  C   UNL     1       4.760  11.759  25.099  0.00  0.00     0.143 A 
HETATM   16  F   UNL     1       5.842  12.244  25.728  0.00  0.00    -0.204 F 
HETATM   17  C   UNL     1       4.438  10.412  25.262  0.00  0.00     0.044 A 
HETATM   18  C   UNL     1       3.317   9.889  24.617  0.00  0.00     0.003 A 
HETATM   19  C   UNL     1       2.516  10.716  23.829  0.00  0.00     0.002 A 
HETATM   20  C   UNL     1       2.819  12.074  23.705  0.00  0.00     0.033 A 
ENDBRANCH  13  14
ENDBRANCH   3   7
BRANCH   4  21
HETATM   21  O   UNL     1       8.177  15.132  23.323  0.00  0.00    -0.360 OA
HETATM   22  H   UNL     1       7.478  15.537  23.880  0.00  0.00     0.217 HD
ENDBRANCH   4  21
BRANCH   1  23
HETATM   23  S   UNL     1       5.883  10.880  19.895  0.00  0.00     0.246 S 
HETATM   24  O   UNL     1       6.418  10.918  18.545  0.00  0.00    -0.206 OA
HETATM   25  O   UNL     1       4.452  10.857  20.086  0.00  0.00    -0.206 OA
BRANCH  23  26
HETATM   26  N   UNL     1       6.551   9.471  20.648  0.00  0.00    -0.210 NA
HETATM   27  C   UNL     1       5.975   8.244  20.027  0.00  0.00     0.129 C 
BRANCH  26  28
HETATM   28  C   UNL     1       6.423   9.482  22.139  0.00  0.00     0.106 C 
BRANCH  28  29
HETATM   29  C   UNL     1       7.762   9.363  22.872  0.00  0.00     0.011 C 
HETATM   30  C   UNL     1       8.006  10.482  23.872  0.00  0.00     0.006 C 
ENDBRANCH  28  29
ENDBRANCH  26  28
ENDBRANCH  23  26
ENDBRANCH   1  23
BRANCH   6  31
HETATM   31  O   UNL     1       8.816  11.912  19.928  0.00  0.00    -0.359 OA
HETATM   32  H   UNL     1       8.983  12.475  19.152  0.00  0.00     0.217 HD
ENDBRANCH   6  31
TORSDOF 8
ENDMDL
MODEL 8
REMARK VINA RESULT:    -7.017      2.562      3.261
REMARK INTER + INTRA:         -11.976
REMARK INTER:                 -10.179
REMARK INTRA:                  -1.797
REMARK UNBOUND:                -2.088
REMARK  8 active torsions:
REMARK  status: ('A' for Active; 'I' for Inactive)
REMARK    1  A    between atoms: C_2  and  C_3 
REMARK    2  A    between atoms: C_3  and  N_4 
REMARK    3  A    between atoms: N_4  and  S_6 
REMARK    4  A    between atoms: S_6  and  C_9 
REMARK    5  A    between atoms: C_11  and  C_17 
REMARK    6  A    between atoms: C_12  and  O_13 
REMARK    7  A    between atoms: C_15  and  O_16 
REMARK    8  A    between atoms: N_23  and  C_24 
ROOT
HETATM    1  C   UNL     1       6.560  10.416  22.576  0.00  0.00     0.108 A 
HETATM    2  C   UNL     1       7.270  11.575  22.230  0.00  0.00     0.046 A 
HETATM    3  C   UNL     1       8.538  11.832  22.758  0.00  0.00     0.047 A 
HETATM    4  C   UNL     1       9.151  10.837  23.529  0.00  0.00     0.082 A 
HETATM    5  C   UNL     1       8.470   9.659  23.842  0.00  0.00     0.075 A 
HETATM    6  C   UNL     1       7.164   9.457  23.385  0.00  0.00     0.091 A 
ENDROOT
BRANCH   3   7
HETATM    7  C   UNL     1       9.248  13.095  22.451  0.00  0.00     0.172 A 
HETATM    8  N   UNL     1      10.431  13.092  21.890  0.00  0.00    -0.151 NA
HETATM    9  N   UNL     1      10.683  14.411  21.639  0.00  0.00    -0.226 N 
HETATM   10  H   UNL     1      11.525  14.743  21.186  0.00  0.00     0.194 HD
HETATM   11  C   UNL     1       9.626  15.214  22.060  0.00  0.00     0.349 A 
HETATM   12  O   UNL     1       9.581  16.424  21.955  0.00  0.00    -0.245 OA
HETATM   13  N   UNL     1       8.715  14.345  22.620  0.00  0.00    -0.241 N 
BRANCH  13  14
HETATM   14  C   UNL     1       7.604  14.784  23.364  0.00  0.00     0.084 A 
HETATM   15  C   UNL     1       7.650  14.908  24.759  0.00  0.00     0.143 A 
HETATM   16  F   UNL     1       8.788  14.652  25.424  0.00  0.00    -0.204 F 
HETATM   17  C   UNL     1       6.535  15.333  25.478  0.00  0.00     0.044 A 
HETATM   18  C   UNL     1       5.343  15.605  24.806  0.00  0.00     0.003 A 
HETATM   19  C   UNL     1       5.279  15.469  23.419  0.00  0.00     0.002 A 
HETATM   20  C   UNL     1       6.413  15.086  22.698  0.00  0.00     0.033 A 
ENDBRANCH  13  14
ENDBRANCH   3   7
BRANCH   4  21
HETATM   21  O   UNL     1      10.432  10.934  24.003  0.00  0.00    -0.360 OA
HETATM   22  H   UNL     1      11.010  10.357  23.458  0.00  0.00     0.217 HD
ENDBRANCH   4  21
BRANCH   1  23
HETATM   23  S   UNL     1       4.828  10.396  22.161  0.00  0.00     0.246 S 
HETATM   24  O   UNL     1       4.358  11.763  22.296  0.00  0.00    -0.206 OA
HETATM   25  O   UNL     1       4.156   9.344  22.888  0.00  0.00    -0.206 OA
BRANCH  23  26
HETATM   26  N   UNL     1       4.755  10.017  20.472  0.00  0.00    -0.210 NA
HETATM   27  C   UNL     1       5.748   8.952  20.149  0.00  0.00     0.129 C 
BRANCH  26  28
HETATM   28  C   UNL     1       4.885  11.219  19.592  0.00  0.00     0.106 C 
BRANCH  28  29
HETATM   29  C   UNL     1       4.742  10.907  18.099  0.00  0.00     0.011 C 
HETATM   30  C   UNL     1       3.572  11.621  17.441  0.00  0.00     0.006 C 
ENDBRANCH  28  29
ENDBRANCH  26  28
ENDBRANCH  23  26
ENDBRANCH   1  23
BRANCH   6  31
HETATM   31  O   UNL     1       6.525   8.298  23.704  0.00  0.00    -0.359 OA
HETATM   32  H   UNL     1       6.554   8.160  24.667  0.00  0.00     0.217 HD
ENDBRANCH   6  31
TORSDOF 8
ENDMDL
MODEL 9
REMARK VINA RESULT:    -6.861      2.486      5.639
REMARK INTER + INTRA:         -11.756
REMARK INTER:                  -9.668
REMARK INTRA:                  -2.088
REMARK UNBOUND:                -2.088
REMARK  8 active torsions:
REMARK  status: ('A' for Active; 'I' for Inactive)
REMARK    1  A    between atoms: C_2  and  C_3 
REMARK    2  A    between atoms: C_3  and  N_4 
REMARK    3  A    between atoms: N_4  and  S_6 
REMARK    4  A    between atoms: S_6  and  C_9 
REMARK    5  A    between atoms: C_11  and  C_17 
REMARK    6  A    between atoms: C_12  and  O_13 
REMARK    7  A    between atoms: C_15  and  O_16 
REMARK    8  A    between atoms: N_23  and  C_24 
ROOT
HETATM    1  C   UNL     1       8.481  13.410  23.098  0.00  0.00     0.108 A 
HETATM    2  C   UNL     1       7.610  12.952  22.099  0.00  0.00     0.046 A 
HETATM    3  C   UNL     1       7.620  11.616  21.686  0.00  0.00     0.047 A 
HETATM    4  C   UNL     1       8.420  10.709  22.392  0.00  0.00     0.082 A 
HETATM    5  C   UNL     1       9.257  11.148  23.419  0.00  0.00     0.075 A 
HETATM    6  C   UNL     1       9.306  12.503  23.758  0.00  0.00     0.091 A 
ENDROOT
BRANCH   3   7
HETATM    7  C   UNL     1       6.754  11.157  20.576  0.00  0.00     0.172 A 
HETATM    8  N   UNL     1       7.167  11.187  19.333  0.00  0.00    -0.151 NA
HETATM    9  N   UNL     1       6.171  10.564  18.637  0.00  0.00    -0.226 N 
HETATM   10  H   UNL     1       6.200  10.407  17.638  0.00  0.00     0.194 HD
HETATM   11  C   UNL     1       5.145  10.155  19.486  0.00  0.00     0.349 A 
HETATM   12  O   UNL     1       4.138   9.571  19.135  0.00  0.00    -0.245 OA
HETATM   13  N   UNL     1       5.522  10.582  20.740  0.00  0.00    -0.241 N 
BRANCH  13  14
HETATM   14  C   UNL     1       4.651  10.561  21.845  0.00  0.00     0.084 A 
HETATM   15  C   UNL     1       3.844  11.657  22.171  0.00  0.00     0.143 A 
HETATM   16  F   UNL     1       3.847  12.755  21.398  0.00  0.00    -0.204 F 
HETATM   17  C   UNL     1       2.997  11.620  23.278  0.00  0.00     0.044 A 
HETATM   18  C   UNL     1       2.978  10.489  24.094  0.00  0.00     0.003 A 
HETATM   19  C   UNL     1       3.789   9.396  23.789  0.00  0.00     0.002 A 
HETATM   20  C   UNL     1       4.603   9.421  22.654  0.00  0.00     0.033 A 
ENDBRANCH  13  14
ENDBRANCH   3   7
BRANCH   4  21
HETATM   21  O   UNL     1       8.424   9.362  22.148  0.00  0.00    -0.360 OA
HETATM   22  H   UNL     1       7.893   9.190  21.340  0.00  0.00     0.217 HD
ENDBRANCH   4  21
BRANCH   1  23
HETATM   23  S   UNL     1       8.646  15.177  23.253  0.00  0.00     0.246 S 
HETATM   24  O   UNL     1       8.520  15.720  21.912  0.00  0.00    -0.206 OA
HETATM   25  O   UNL     1       9.816  15.498  24.036  0.00  0.00    -0.206 OA
BRANCH  23  26
HETATM   26  N   UNL     1       7.249  15.704  24.130  0.00  0.00    -0.210 NA
HETATM   27  C   UNL     1       7.064  14.858  25.344  0.00  0.00     0.129 C 
BRANCH  26  28
HETATM   28  C   UNL     1       6.017  15.783  23.284  0.00  0.00     0.106 C 
BRANCH  28  29
HETATM   29  C   UNL     1       4.749  16.118  24.075  0.00  0.00     0.011 C 
HETATM   30  C   UNL     1       3.548  15.274  23.678  0.00  0.00     0.006 C 
ENDBRANCH  28  29
ENDBRANCH  26  28
ENDBRANCH  23  26
ENDBRANCH   1  23
BRANCH   6  31
HETATM   31  O   UNL     1      10.131  12.903  24.766  0.00  0.00    -0.359 OA
HETATM   32  H   UNL     1       9.604  13.281  25.491  0.00  0.00     0.217 HD
ENDBRANCH   6  31
TORSDOF 8
ENDMDL
