MODEL 1
REMARK VINA RESULT:    -7.721      0.000      0.000
REMARK INTER + INTRA:         -11.172
REMARK INTER:                  -9.969
REMARK INTRA:                  -1.202
REMARK UNBOUND:                -1.419
REMARK  6 active torsions:
REMARK  status: ('A' for Active; 'I' for Inactive)
REMARK    1  A    between atoms: O_1  and  C_2 
REMARK    2  A    between atoms: C_2  and  C_4 
REMARK    3  A    between atoms: C_6  and  C_7 
REMARK    4  A    between atoms: N_13  and  C_14 
REMARK    5  A    between atoms: C_21  and  O_22 
REMARK    6  A    between atoms: C_25  and  O_26 
ROOT
HETATM    1  C   UNL     1       8.150  12.128  20.719  0.00  0.00     0.073 C 
HETATM    2  C   UNL     1       8.461  12.634  21.995  0.00  0.00     0.039 C 
HETATM    3  C   UNL     1       7.695  12.307  23.125  0.00  0.00     0.048 C 
HETATM    4  C   UNL     1       6.556  11.511  22.942  0.00  0.00     0.100 C 
HETATM    5  C   UNL     1       6.319  10.888  21.708  0.00  0.00     0.079 C 
HETATM    6 BR   UNL     1       4.889   9.645  21.509  0.00  0.00    -0.045 Br
HETATM    7  C   UNL     1       7.110  11.201  20.598  0.00  0.00     0.102 C 
ENDROOT
BRANCH   3   8
HETATM    8  C   UNL     1       8.108  12.918  24.419  0.00  0.00     0.172 A 
HETATM    9  N   UNL     1       9.193  12.518  25.032  0.00  0.00    -0.151 NA
HETATM   10  N   UNL     1       9.316  13.358  26.101  0.00  0.00    -0.226 N 
HETATM   11  H   UNL     1      10.052  13.266  26.789  0.00  0.00     0.194 HD
HETATM   12  C   UNL     1       8.283  14.283  26.131  0.00  0.00     0.349 A 
HETATM   13  O   UNL     1       8.134  15.149  26.979  0.00  0.00    -0.245 OA
HETATM   14  N   UNL     1       7.490  13.976  25.041  0.00  0.00    -0.241 N 
BRANCH  14  15
HETATM   15  C   UNL     1       6.252  14.596  24.799  0.00  0.00     0.084 A 
HETATM   16  C   UNL     1       5.231  14.474  25.753  0.00  0.00     0.033 A 
HETATM   17  C   UNL     1       4.057  15.220  25.626  0.00  0.00     0.002 A 
HETATM   18  C   UNL     1       3.864  16.040  24.514  0.00  0.00     0.003 A 
HETATM   19  C   UNL     1       4.841  16.108  23.523  0.00  0.00     0.044 A 
HETATM   20  C   UNL     1       6.031  15.397  23.675  0.00  0.00     0.143 A 
HETATM   21  F   UNL     1       6.960  15.483  22.712  0.00  0.00    -0.204 F 
ENDBRANCH  14  15
ENDBRANCH   3   8
BRANCH   4  22
HETATM   22  O   UNL     1       5.584  11.376  23.896  0.00  0.00    -0.358 OA
HETATM   23  H   UNL     1       5.615  10.479  24.272  0.00  0.00     0.217 HD
ENDBRANCH   4  22
BRANCH   1  24
HETATM   24  C   UNL     1       8.928  12.653  19.563  0.00  0.00     0.179 C 
HETATM   25  O   UNL     1      10.121  12.905  19.640  0.00  0.00    -0.646 OA
BRANCH  24  26
HETATM   26  O   UNL     1       8.220  12.892  18.439  0.00  0.00    -0.773 OA
HETATM   27  H   UNL     1       8.049  12.080  17.914  0.00  0.00     0.167 HD
ENDBRANCH  24  26
ENDBRANCH   1  24
BRANCH   7  28
HETATM   28  O   UNL     1       6.844  10.634  19.374  0.00  0.00    -0.358 OA
HETATM   29  H   UNL     1       6.967  11.332  18.695  0.00  0.00     0.217 HD
ENDBRANCH   7  28
TORSDOF 6
ENDMDL
MODEL 2
REMARK VINA RESULT:    -7.630      1.880      3.090
REMARK INTER + INTRA:         -11.056
REMARK INTER:                  -9.500
REMARK INTRA:                  -1.556
REMARK UNBOUND:                -1.419
REMARK  6 active torsions:
REMARK  status: ('A' for Active; 'I' for Inactive)
REMARK    1  A    between atoms: O_1  and  C_2 
REMARK    2  A    between atoms: C_2  and  C_4 
REMARK    3  A    between atoms: C_6  and  C_7 
REMARK    4  A    between atoms: N_13  and  C_14 
REMARK    5  A    between atoms: C_21  and  O_22 
REMARK    6  A    between atoms: C_25  and  O_26 
ROOT
HETATM    1  C   UNL     1       6.479  10.661  21.754  0.00  0.00     0.073 C 
HETATM    2  C   UNL     1       6.763  11.279  22.986  0.00  0.00     0.039 C 
HETATM    3  C   UNL     1       7.676  12.341  23.086  0.00  0.00     0.048 C 
HETATM    4  C   UNL     1       8.361  12.732  21.927  0.00  0.00     0.100 C 
HETATM    5  C   UNL     1       7.984  12.223  20.677  0.00  0.00     0.079 C 
HETATM    6 BR   UNL     1       8.771  12.899  19.078  0.00  0.00    -0.045 Br
HETATM    7  C   UNL     1       7.050  11.186  20.591  0.00  0.00     0.102 C 
ENDROOT
BRANCH   3   8
HETATM    8  C   UNL     1       7.912  12.902  24.445  0.00  0.00     0.172 A 
HETATM    9  N   UNL     1       8.989  12.591  25.120  0.00  0.00    -0.151 NA
HETATM   10  N   UNL     1       8.928  13.359  26.245  0.00  0.00    -0.226 N 
HETATM   11  H   UNL     1       9.616  13.306  26.985  0.00  0.00     0.194 HD
HETATM   12  C   UNL     1       7.788  14.151  26.248  0.00  0.00     0.349 A 
HETATM   13  O   UNL     1       7.470  14.930  27.133  0.00  0.00    -0.245 OA
HETATM   14  N   UNL     1       7.122  13.831  25.079  0.00  0.00    -0.241 N 
BRANCH  14  15
HETATM   15  C   UNL     1       5.839  14.315  24.775  0.00  0.00     0.084 A 
HETATM   16  C   UNL     1       5.715  15.473  23.992  0.00  0.00     0.033 A 
HETATM   17  C   UNL     1       4.462  15.877  23.527  0.00  0.00     0.002 A 
HETATM   18  C   UNL     1       3.317  15.170  23.894  0.00  0.00     0.003 A 
HETATM   19  C   UNL     1       3.422  14.063  24.734  0.00  0.00     0.044 A 
HETATM   20  C   UNL     1       4.678  13.636  25.159  0.00  0.00     0.143 A 
HETATM   21  F   UNL     1       4.757  12.564  25.962  0.00  0.00    -0.204 F 
ENDBRANCH  14  15
ENDBRANCH   3   8
BRANCH   4  22
HETATM   22  O   UNL     1       9.470  13.535  21.957  0.00  0.00    -0.358 OA
HETATM   23  H   UNL     1       9.725  13.777  21.049  0.00  0.00     0.217 HD
ENDBRANCH   4  22
BRANCH   1  24
HETATM   24  C   UNL     1       5.615   9.448  21.777  0.00  0.00     0.179 C 
HETATM   25  O   UNL     1       4.512   9.443  22.301  0.00  0.00    -0.646 OA
BRANCH  24  26
HETATM   26  O   UNL     1       6.152   8.335  21.234  0.00  0.00    -0.773 OA
HETATM   27  H   UNL     1       7.043   8.488  20.850  0.00  0.00     0.167 HD
ENDBRANCH  24  26
ENDBRANCH   1  24
BRANCH   7  28
HETATM   28  O   UNL     1       6.721  10.647  19.369  0.00  0.00    -0.358 OA
HETATM   29  H   UNL     1       7.556  10.526  18.869  0.00  0.00     0.217 HD
ENDBRANCH   7  28
TORSDOF 6
ENDMDL
MODEL 3
REMARK VINA RESULT:    -7.608      2.139      2.883
REMARK INTER + INTRA:         -11.029
REMARK INTER:                  -9.637
REMARK INTRA:                  -1.392
REMARK UNBOUND:                -1.419
REMARK  6 active torsions:
REMARK  status: ('A' for Active; 'I' for Inactive)
REMARK    1  A    between atoms: O_1  and  C_2 
REMARK    2  A    between atoms: C_2  and  C_4 
REMARK    3  A    between atoms: C_6  and  C_7 
REMARK    4  A    between atoms: N_13  and  C_14 
REMARK    5  A    between atoms: C_21  and  O_22 
REMARK    6  A    between atoms: C_25  and  O_26 
ROOT
HETATM    1  C   UNL     1       5.492  10.497  21.569  0.00  0.00     0.073 C 
HETATM    2  C   UNL     1       6.512  11.355  22.021  0.00  0.00     0.039 C 
HETATM    3  C   UNL     1       6.692  11.633  23.386  0.00  0.00     0.048 C 
HETATM    4  C   UNL     1       5.777  11.087  24.296  0.00  0.00     0.100 C 
HETATM    5  C   UNL     1       4.850  10.123  23.875  0.00  0.00     0.079 C 
HETATM    6 BR   UNL     1       3.741   9.227  25.139  0.00  0.00    -0.045 Br
HETATM    7  C   UNL     1       4.703   9.835  22.514  0.00  0.00     0.102 C 
ENDROOT
BRANCH   3   8
HETATM    8  C   UNL     1       7.792  12.571  23.743  0.00  0.00     0.172 A 
HETATM    9  N   UNL     1       9.041  12.184  23.701  0.00  0.00    -0.151 NA
HETATM   10  N   UNL     1       9.762  13.310  23.974  0.00  0.00    -0.226 N 
HETATM   11  H   UNL     1      10.771  13.311  24.049  0.00  0.00     0.194 HD
HETATM   12  C   UNL     1       8.928  14.399  24.185  0.00  0.00     0.349 A 
HETATM   13  O   UNL     1       9.298  15.530  24.455  0.00  0.00    -0.245 OA
HETATM   14  N   UNL     1       7.644  13.902  24.051  0.00  0.00    -0.241 N 
BRANCH  14  15
HETATM   15  C   UNL     1       6.498  14.664  24.335  0.00  0.00     0.084 A 
HETATM   16  C   UNL     1       5.769  15.218  23.272  0.00  0.00     0.033 A 
HETATM   17  C   UNL     1       4.534  15.828  23.508  0.00  0.00     0.002 A 
HETATM   18  C   UNL     1       4.051  15.949  24.811  0.00  0.00     0.003 A 
HETATM   19  C   UNL     1       4.806  15.470  25.881  0.00  0.00     0.044 A 
HETATM   20  C   UNL     1       6.015  14.822  25.637  0.00  0.00     0.143 A 
HETATM   21  F   UNL     1       6.721  14.362  26.681  0.00  0.00    -0.204 F 
ENDBRANCH  14  15
ENDBRANCH   3   8
BRANCH   4  22
HETATM   22  O   UNL     1       5.670  11.519  25.591  0.00  0.00    -0.358 OA
HETATM   23  H   UNL     1       4.745  11.748  25.786  0.00  0.00     0.217 HD
ENDBRANCH   4  22
BRANCH   1  24
HETATM   24  C   UNL     1       5.288  10.387  20.098  0.00  0.00     0.179 C 
HETATM   25  O   UNL     1       4.176  10.315  19.598  0.00  0.00    -0.646 OA
BRANCH  24  26
HETATM   26  O   UNL     1       6.412  10.313  19.354  0.00  0.00    -0.773 OA
HETATM   27  H   UNL     1       6.378   9.598  18.681  0.00  0.00     0.167 HD
ENDBRANCH  24  26
ENDBRANCH   1  24
BRANCH   7  28
HETATM   28  O   UNL     1       3.755   8.931  22.094  0.00  0.00    -0.358 OA
HETATM   29  H   UNL     1       2.941   9.437  21.885  0.00  0.00     0.217 HD
ENDBRANCH   7  28
TORSDOF 6
ENDMDL
MODEL 4
REMARK VINA RESULT:    -7.417      1.825      2.446
REMARK INTER + INTRA:         -10.788
REMARK INTER:                  -9.355
REMARK INTRA:                  -1.433
REMARK UNBOUND:                -1.419
REMARK  6 active torsions:
REMARK  status: ('A' for Active; 'I' for Inactive)
REMARK    1  A    between atoms: O_1  and  C_2 
REMARK    2  A    between atoms: C_2  and  C_4 
REMARK    3  A    between atoms: C_6  and  C_7 
REMARK    4  A    between atoms: N_13  and  C_14 
REMARK    5  A    between atoms: C_21  and  O_22 
REMARK    6  A    between atoms: C_25  and  O_26 
ROOT
HETATM    1  C   UNL     1       5.606  10.444  21.486  0.00  0.00     0.073 C 
HETATM    2  C   UNL     1       6.541  11.294  22.105  0.00  0.00     0.039 C 
HETATM    3  C   UNL     1       6.557  11.483  23.496  0.00  0.00     0.048 C 
HETATM    4  C   UNL     1       5.565  10.854  24.259  0.00  0.00     0.100 C 
HETATM    5  C   UNL     1       4.722   9.898  23.674  0.00  0.00     0.079 C 
HETATM    6 BR   UNL     1       3.509   8.890  24.744  0.00  0.00    -0.045 Br
HETATM    7  C   UNL     1       4.739   9.699  22.290  0.00  0.00     0.102 C 
ENDROOT
BRANCH   3   8
HETATM    8  C   UNL     1       7.579  12.423  24.036  0.00  0.00     0.172 A 
HETATM    9  N   UNL     1       8.829  12.053  24.159  0.00  0.00    -0.151 NA
HETATM   10  N   UNL     1       9.484  13.178  24.567  0.00  0.00    -0.226 N 
HETATM   11  H   UNL     1      10.472  13.190  24.785  0.00  0.00     0.194 HD
HETATM   12  C   UNL     1       8.609  14.248  24.693  0.00  0.00     0.349 A 
HETATM   13  O   UNL     1       8.917  15.375  25.050  0.00  0.00    -0.245 OA
HETATM   14  N   UNL     1       7.366  13.740  24.363  0.00  0.00    -0.241 N 
BRANCH  14  15
HETATM   15  C   UNL     1       6.178  14.477  24.506  0.00  0.00     0.084 A 
HETATM   16  C   UNL     1       5.629  14.642  25.786  0.00  0.00     0.033 A 
HETATM   17  C   UNL     1       4.553  15.511  25.983  0.00  0.00     0.002 A 
HETATM   18  C   UNL     1       3.976  16.169  24.897  0.00  0.00     0.003 A 
HETATM   19  C   UNL     1       4.467  15.952  23.611  0.00  0.00     0.044 A 
HETATM   20  C   UNL     1       5.569  15.119  23.424  0.00  0.00     0.143 A 
HETATM   21  F   UNL     1       6.029  14.930  22.178  0.00  0.00    -0.204 F 
ENDBRANCH  14  15
ENDBRANCH   3   8
BRANCH   4  22
HETATM   22  O   UNL     1       5.300  11.194  25.559  0.00  0.00    -0.358 OA
HETATM   23  H   UNL     1       6.128  11.205  26.071  0.00  0.00     0.217 HD
ENDBRANCH   4  22
BRANCH   1  24
HETATM   24  C   UNL     1       5.571  10.429  19.997  0.00  0.00     0.179 C 
HETATM   25  O   UNL     1       4.537  10.252  19.371  0.00  0.00    -0.646 OA
BRANCH  24  26
HETATM   26  O   UNL     1       6.765  10.563  19.381  0.00  0.00    -0.773 OA
HETATM   27  H   UNL     1       6.829  11.384  18.845  0.00  0.00     0.167 HD
ENDBRANCH  24  26
ENDBRANCH   1  24
BRANCH   7  28
HETATM   28  O   UNL     1       3.873   8.801  21.707  0.00  0.00    -0.358 OA
HETATM   29  H   UNL     1       2.962   9.079  21.944  0.00  0.00     0.217 HD
ENDBRANCH   7  28
TORSDOF 6
ENDMDL
MODEL 5
REMARK VINA RESULT:    -7.255      2.785      3.674
REMARK INTER + INTRA:         -10.583
REMARK INTER:                  -9.134
REMARK INTRA:                  -1.449
REMARK UNBOUND:                -1.419
REMARK  6 active torsions:
REMARK  status: ('A' for Active; 'I' for Inactive)
REMARK    1  A    between atoms: O_1  and  C_2 
REMARK    2  A    between atoms: C_2  and  C_4 
REMARK    3  A    between atoms: C_6  and  C_7 
REMARK    4  A    between atoms: N_13  and  C_14 
REMARK    5  A    between atoms: C_21  and  O_22 
REMARK    6  A    between atoms: C_25  and  O_26 
ROOT
HETATM    1  C   UNL     1       8.259  14.094  20.824  0.00  0.00     0.073 C 
HETATM    2  C   UNL     1       7.483  13.171  21.550  0.00  0.00     0.039 C 
HETATM    3  C   UNL     1       7.517  13.121  22.952  0.00  0.00     0.048 C 
HETATM    4  C   UNL     1       8.405  13.975  23.621  0.00  0.00     0.100 C 
HETATM    5  C   UNL     1       9.072  14.990  22.922  0.00  0.00     0.079 C 
HETATM    6 BR   UNL     1      10.121  16.280  23.853  0.00  0.00    -0.045 Br
HETATM    7  C   UNL     1       9.005  15.045  21.526  0.00  0.00     0.102 C 
ENDROOT
BRANCH   3   8
HETATM    8  C   UNL     1       6.669  12.089  23.611  0.00  0.00     0.172 A 
HETATM    9  N   UNL     1       6.980  10.820  23.535  0.00  0.00    -0.151 NA
HETATM   10  N   UNL     1       6.068  10.191  24.331  0.00  0.00    -0.226 N 
HETATM   11  H   UNL     1       6.034   9.186  24.440  0.00  0.00     0.194 HD
HETATM   12  C   UNL     1       5.188  11.102  24.899  0.00  0.00     0.349 A 
HETATM   13  O   UNL     1       4.265  10.822  25.647  0.00  0.00    -0.245 OA
HETATM   14  N   UNL     1       5.577  12.335  24.407  0.00  0.00    -0.241 N 
BRANCH  14  15
HETATM   15  C   UNL     1       4.843  13.512  24.633  0.00  0.00     0.084 A 
HETATM   16  C   UNL     1       5.173  14.321  25.731  0.00  0.00     0.033 A 
HETATM   17  C   UNL     1       4.584  15.578  25.881  0.00  0.00     0.002 A 
HETATM   18  C   UNL     1       3.614  16.010  24.976  0.00  0.00     0.003 A 
HETATM   19  C   UNL     1       3.224  15.180  23.925  0.00  0.00     0.044 A 
HETATM   20  C   UNL     1       3.846  13.946  23.753  0.00  0.00     0.143 A 
HETATM   21  F   UNL     1       3.461  13.167  22.732  0.00  0.00    -0.204 F 
ENDBRANCH  14  15
ENDBRANCH   3   8
BRANCH   4  22
HETATM   22  O   UNL     1       8.739  13.813  24.939  0.00  0.00    -0.358 OA
HETATM   23  H   UNL     1       8.838  14.683  25.363  0.00  0.00     0.217 HD
ENDBRANCH   4  22
BRANCH   1  24
HETATM   24  C   UNL     1       8.269  13.966  19.340  0.00  0.00     0.179 C 
HETATM   25  O   UNL     1       8.494  12.904  18.779  0.00  0.00    -0.646 OA
BRANCH  24  26
HETATM   26  O   UNL     1       8.074  15.110  18.650  0.00  0.00    -0.773 OA
HETATM   27  H   UNL     1       8.164  14.991  17.679  0.00  0.00     0.167 HD
ENDBRANCH  24  26
ENDBRANCH   1  24
BRANCH   7  28
HETATM   28  O   UNL     1       9.704  16.006  20.834  0.00  0.00    -0.358 OA
HETATM   29  H   UNL     1      10.547  15.599  20.539  0.00  0.00     0.217 HD
ENDBRANCH   7  28
TORSDOF 6
ENDMDL
MODEL 6
REMARK VINA RESULT:    -7.239      2.594      3.570
REMARK INTER + INTRA:         -10.563
REMARK INTER:                  -9.086
REMARK INTRA:                  -1.478
REMARK UNBOUND:                -1.419
REMARK  6 active torsions:
REMARK  status: ('A' for Active; 'I' for Inactive)
REMARK    1  A    between atoms: O_1  and  C_2 
REMARK    2  A    between atoms: C_2  and  C_4 
REMARK    3  A    between atoms: C_6  and  C_7 
REMARK    4  A    between atoms: N_13  and  C_14 
REMARK    5  A    between atoms: C_21  and  O_22 
REMARK    6  A    between atoms: C_25  and  O_26 
ROOT
HETATM    1  C   UNL     1       6.448  10.352  21.151  0.00  0.00     0.073 C 
HETATM    2  C   UNL     1       7.160  11.557  21.007  0.00  0.00     0.039 C 
HETATM    3  C   UNL     1       8.129  11.958  21.941  0.00  0.00     0.048 C 
HETATM    4  C   UNL     1       8.325  11.155  23.073  0.00  0.00     0.100 C 
HETATM    5  C   UNL     1       7.728   9.889  23.155  0.00  0.00     0.079 C 
HETATM    6 BR   UNL     1       8.151   8.709  24.590  0.00  0.00    -0.045 Br
HETATM    7  C   UNL     1       6.787   9.492  22.200  0.00  0.00     0.102 C 
ENDROOT
BRANCH   3   8
HETATM    8  C   UNL     1       8.803  13.263  21.695  0.00  0.00     0.172 A 
HETATM    9  N   UNL     1       9.843  13.340  20.904  0.00  0.00    -0.151 NA
HETATM   10  N   UNL     1      10.121  14.673  20.826  0.00  0.00    -0.226 N 
HETATM   11  H   UNL     1      10.908  15.041  20.308  0.00  0.00     0.194 HD
HETATM   12  C   UNL     1       9.228  15.415  21.586  0.00  0.00     0.349 A 
HETATM   13  O   UNL     1       9.243  16.630  21.709  0.00  0.00    -0.245 OA
HETATM   14  N   UNL     1       8.385  14.484  22.165  0.00  0.00    -0.241 N 
BRANCH  14  15
HETATM   15  C   UNL     1       7.421  14.823  23.130  0.00  0.00     0.084 A 
HETATM   16  C   UNL     1       6.129  15.173  22.709  0.00  0.00     0.033 A 
HETATM   17  C   UNL     1       5.106  15.342  23.645  0.00  0.00     0.002 A 
HETATM   18  C   UNL     1       5.379  15.231  25.009  0.00  0.00     0.003 A 
HETATM   19  C   UNL     1       6.677  14.960  25.439  0.00  0.00     0.044 A 
HETATM   20  C   UNL     1       7.685  14.747  24.501  0.00  0.00     0.143 A 
HETATM   21  F   UNL     1       8.925  14.481  24.937  0.00  0.00    -0.204 F 
ENDBRANCH  14  15
ENDBRANCH   3   8
BRANCH   4  22
HETATM   22  O   UNL     1       9.011  11.585  24.177  0.00  0.00    -0.358 OA
HETATM   23  H   UNL     1       8.708  12.476  24.426  0.00  0.00     0.217 HD
ENDBRANCH   4  22
BRANCH   1  24
HETATM   24  C   UNL     1       5.337  10.092  20.194  0.00  0.00     0.179 C 
HETATM   25  O   UNL     1       5.501  10.109  18.984  0.00  0.00    -0.646 OA
BRANCH  24  26
HETATM   26  O   UNL     1       4.121   9.894  20.746  0.00  0.00    -0.773 OA
HETATM   27  H   UNL     1       3.988   8.972  21.059  0.00  0.00     0.167 HD
ENDBRANCH  24  26
ENDBRANCH   1  24
BRANCH   7  28
HETATM   28  O   UNL     1       6.159   8.273  22.309  0.00  0.00    -0.358 OA
HETATM   29  H   UNL     1       6.726   7.702  22.871  0.00  0.00     0.217 HD
ENDBRANCH   7  28
TORSDOF 6
ENDMDL
MODEL 7
REMARK VINA RESULT:    -7.024      1.955      3.782
REMARK INTER + INTRA:         -10.291
REMARK INTER:                  -8.761
REMARK INTRA:                  -1.530
REMARK UNBOUND:                -1.419
REMARK  6 active torsions:
REMARK  status: ('A' for Active; 'I' for Inactive)
REMARK    1  A    between atoms: O_1  and  C_2 
REMARK    2  A    between atoms: C_2  and  C_4 
REMARK    3  A    between atoms: C_6  and  C_7 
REMARK    4  A    between atoms: N_13  and  C_14 
REMARK    5  A    between atoms: C_21  and  O_22 
REMARK    6  A    between atoms: C_25  and  O_26 
ROOT
HETATM    1  C   UNL     1       5.229  10.319  23.945  0.00  0.00     0.073 C 
HETATM    2  C   UNL     1       6.194  11.254  24.363  0.00  0.00     0.039 C 
HETATM    3  C   UNL     1       7.074  11.862  23.454  0.00  0.00     0.048 C 
HETATM    4  C   UNL     1       7.018  11.460  22.113  0.00  0.00     0.100 C 
HETATM    5  C   UNL     1       5.974  10.641  21.663  0.00  0.00     0.079 C 
HETATM    6 BR   UNL     1       5.774  10.256  19.807  0.00  0.00    -0.045 Br
HETATM    7  C   UNL     1       5.086  10.067  22.578  0.00  0.00     0.102 C 
ENDROOT
BRANCH   3   8
HETATM    8  C   UNL     1       8.066  12.821  24.015  0.00  0.00     0.172 A 
HETATM    9  N   UNL     1       9.328  12.490  24.125  0.00  0.00    -0.151 NA
HETATM   10  N   UNL     1       9.947  13.625  24.560  0.00  0.00    -0.226 N 
HETATM   11  H   UNL     1      10.935  13.664  24.775  0.00  0.00     0.194 HD
HETATM   12  C   UNL     1       9.039  14.662  24.715  0.00  0.00     0.349 A 
HETATM   13  O   UNL     1       9.310  15.789  25.100  0.00  0.00    -0.245 OA
HETATM   14  N   UNL     1       7.812  14.122  24.376  0.00  0.00    -0.241 N 
BRANCH  14  15
HETATM   15  C   UNL     1       6.601  14.816  24.540  0.00  0.00     0.084 A 
HETATM   16  C   UNL     1       5.987  15.391  23.416  0.00  0.00     0.033 A 
HETATM   17  C   UNL     1       4.703  15.931  23.516  0.00  0.00     0.002 A 
HETATM   18  C   UNL     1       4.049  15.963  24.748  0.00  0.00     0.003 A 
HETATM   19  C   UNL     1       4.683  15.463  25.884  0.00  0.00     0.044 A 
HETATM   20  C   UNL     1       5.946  14.884  25.773  0.00  0.00     0.143 A 
HETATM   21  F   UNL     1       6.533  14.403  26.879  0.00  0.00    -0.204 F 
ENDBRANCH  14  15
ENDBRANCH   3   8
BRANCH   4  22
HETATM   22  O   UNL     1       8.004  11.753  21.209  0.00  0.00    -0.358 OA
HETATM   23  H   UNL     1       7.706  12.466  20.616  0.00  0.00     0.217 HD
ENDBRANCH   4  22
BRANCH   1  24
HETATM   24  C   UNL     1       4.448   9.619  25.002  0.00  0.00     0.179 C 
HETATM   25  O   UNL     1       3.777  10.223  25.825  0.00  0.00    -0.646 OA
BRANCH  24  26
HETATM   26  O   UNL     1       4.575   8.275  25.032  0.00  0.00    -0.773 OA
HETATM   27  H   UNL     1       5.028   7.915  24.238  0.00  0.00     0.167 HD
ENDBRANCH  24  26
ENDBRANCH   1  24
BRANCH   7  28
HETATM   28  O   UNL     1       4.094   9.217  22.144  0.00  0.00    -0.358 OA
HETATM   29  H   UNL     1       3.870   9.476  21.224  0.00  0.00     0.217 HD
ENDBRANCH   7  28
TORSDOF 6
ENDMDL
MODEL 8
REMARK VINA RESULT:    -7.017      6.232      8.427
REMARK INTER + INTRA:         -10.282
REMARK INTER:                  -8.939
REMARK INTRA:                  -1.343
REMARK UNBOUND:                -1.419
REMARK  6 active torsions:
REMARK  status: ('A' for Active; 'I' for Inactive)
REMARK    1  A    between atoms: O_1  and  C_2 
REMARK    2  A    between atoms: C_2  and  C_4 
REMARK    3  A    between atoms: C_6  and  C_7 
REMARK    4  A    between atoms: N_13  and  C_14 
REMARK    5  A    between atoms: C_21  and  O_22 
REMARK    6  A    between atoms: C_25  and  O_26 
ROOT
HETATM    1  C   UNL     1       2.943  14.135  25.514  0.00  0.00     0.073 C 
HETATM    2  C   UNL     1       1.684  13.839  24.958  0.00  0.00     0.039 C 
HETATM    3  C   UNL     1       1.395  12.576  24.416  0.00  0.00     0.048 C 
HETATM    4  C   UNL     1       2.424  11.626  24.375  0.00  0.00     0.100 C 
HETATM    5  C   UNL     1       3.631  11.859  25.049  0.00  0.00     0.079 C 
HETATM    6 BR   UNL     1       4.954  10.493  25.170  0.00  0.00    -0.045 Br
HETATM    7  C   UNL     1       3.892  13.113  25.611  0.00  0.00     0.102 C 
ENDROOT
BRANCH   3   8
HETATM    8  C   UNL     1       0.036  12.386  23.838  0.00  0.00     0.172 A 
HETATM    9  N   UNL     1      -0.290  12.942  22.699  0.00  0.00    -0.151 NA
HETATM   10  N   UNL     1      -1.541  12.469  22.428  0.00  0.00    -0.226 N 
HETATM   11  H   UNL     1      -2.075  12.759  21.619  0.00  0.00     0.194 HD
HETATM   12  C   UNL     1      -1.977  11.610  23.426  0.00  0.00     0.349 A 
HETATM   13  O   UNL     1      -3.060  11.046  23.451  0.00  0.00    -0.245 OA
HETATM   14  N   UNL     1      -0.949  11.577  24.350  0.00  0.00    -0.241 N 
BRANCH  14  15
HETATM   15  C   UNL     1      -1.059  10.927  25.592  0.00  0.00     0.084 A 
HETATM   16  C   UNL     1      -1.725  11.575  26.643  0.00  0.00     0.033 A 
HETATM   17  C   UNL     1      -2.004  10.889  27.828  0.00  0.00     0.002 A 
HETATM   18  C   UNL     1      -1.563   9.576  27.998  0.00  0.00     0.003 A 
HETATM   19  C   UNL     1      -0.834   8.951  26.987  0.00  0.00     0.044 A 
HETATM   20  C   UNL     1      -0.596   9.623  25.790  0.00  0.00     0.143 A 
HETATM   21  F   UNL     1       0.101   8.999  24.829  0.00  0.00    -0.204 F 
ENDBRANCH  14  15
ENDBRANCH   3   8
BRANCH   4  22
HETATM   22  O   UNL     1       2.354  10.488  23.615  0.00  0.00    -0.358 OA
HETATM   23  H   UNL     1       3.209  10.026  23.636  0.00  0.00     0.217 HD
ENDBRANCH   4  22
BRANCH   1  24
HETATM   24  C   UNL     1       3.199  15.543  25.923  0.00  0.00     0.179 C 
HETATM   25  O   UNL     1       3.978  16.266  25.319  0.00  0.00    -0.646 OA
BRANCH  24  26
HETATM   26  O   UNL     1       2.562  15.956  27.039  0.00  0.00    -0.773 OA
HETATM   27  H   UNL     1       2.982  16.744  27.450  0.00  0.00     0.167 HD
ENDBRANCH  24  26
ENDBRANCH   1  24
BRANCH   7  28
HETATM   28  O   UNL     1       5.098  13.361  26.225  0.00  0.00    -0.358 OA
HETATM   29  H   UNL     1       5.060  14.273  26.585  0.00  0.00     0.217 HD
ENDBRANCH   7  28
TORSDOF 6
ENDMDL
MODEL 9
REMARK VINA RESULT:    -6.833      1.966      3.677
REMARK INTER + INTRA:         -10.050
REMARK INTER:                  -8.631
REMARK INTRA:                  -1.419
REMARK UNBOUND:                -1.419
REMARK  6 active torsions:
REMARK  status: ('A' for Active; 'I' for Inactive)
REMARK    1  A    between atoms: O_1  and  C_2 
REMARK    2  A    between atoms: C_2  and  C_4 
REMARK    3  A    between atoms: C_6  and  C_7 
REMARK    4  A    between atoms: N_13  and  C_14 
REMARK    5  A    between atoms: C_21  and  O_22 
REMARK    6  A    between atoms: C_25  and  O_26 
ROOT
HETATM    1  C   UNL     1       4.564   9.943  23.842  0.00  0.00     0.073 C 
HETATM    2  C   UNL     1       5.392  10.799  24.593  0.00  0.00     0.039 C 
HETATM    3  C   UNL     1       6.473  11.479  24.010  0.00  0.00     0.048 C 
HETATM    4  C   UNL     1       6.758  11.229  22.660  0.00  0.00     0.100 C 
HETATM    5  C   UNL     1       5.861  10.495  21.872  0.00  0.00     0.079 C 
HETATM    6 BR   UNL     1       6.137  10.324  19.994  0.00  0.00    -0.045 Br
HETATM    7  C   UNL     1       4.771   9.848  22.463  0.00  0.00     0.102 C 
ENDROOT
BRANCH   3   8
HETATM    8  C   UNL     1       7.290  12.341  24.907  0.00  0.00     0.172 A 
HETATM    9  N   UNL     1       8.391  11.886  25.452  0.00  0.00    -0.151 NA
HETATM   10  N   UNL     1       8.924  12.960  26.103  0.00  0.00    -0.226 N 
HETATM   11  H   UNL     1       9.769  12.902  26.656  0.00  0.00     0.194 HD
HETATM   12  C   UNL     1       8.128  14.085  25.948  0.00  0.00     0.349 A 
HETATM   13  O   UNL     1       8.356  15.185  26.428  0.00  0.00    -0.245 OA
HETATM   14  N   UNL     1       7.055  13.666  25.182  0.00  0.00    -0.241 N 
BRANCH  14  15
HETATM   15  C   UNL     1       5.940  14.481  24.920  0.00  0.00     0.084 A 
HETATM   16  C   UNL     1       5.099  14.846  25.982  0.00  0.00     0.033 A 
HETATM   17  C   UNL     1       4.091  15.793  25.787  0.00  0.00     0.002 A 
HETATM   18  C   UNL     1       3.870  16.331  24.518  0.00  0.00     0.003 A 
HETATM   19  C   UNL     1       4.652  15.916  23.442  0.00  0.00     0.044 A 
HETATM   20  C   UNL     1       5.686  15.005  23.649  0.00  0.00     0.143 A 
HETATM   21  F   UNL     1       6.430  14.626  22.600  0.00  0.00    -0.204 F 
ENDBRANCH  14  15
ENDBRANCH   3   8
BRANCH   4  22
HETATM   22  O   UNL     1       7.939  11.593  22.072  0.00  0.00    -0.358 OA
HETATM   23  H   UNL     1       7.780  12.301  21.424  0.00  0.00     0.217 HD
ENDBRANCH   4  22
BRANCH   1  24
HETATM   24  C   UNL     1       3.542   9.152  24.582  0.00  0.00     0.179 C 
HETATM   25  O   UNL     1       3.833   8.428  25.522  0.00  0.00    -0.646 OA
BRANCH  24  26
HETATM   26  O   UNL     1       2.279   9.239  24.112  0.00  0.00    -0.773 OA
HETATM   27  H   UNL     1       1.846   8.362  24.017  0.00  0.00     0.167 HD
ENDBRANCH  24  26
ENDBRANCH   1  24
BRANCH   7  28
HETATM   28  O   UNL     1       3.922   9.080  21.700  0.00  0.00    -0.358 OA
HETATM   29  H   UNL     1       3.195   9.664  21.395  0.00  0.00     0.217 HD
ENDBRANCH   7  28
TORSDOF 6
ENDMDL
