REMARK  7 active torsions:
REMARK  status: ('A' for Active; 'I' for Inactive)
REMARK    1  A    between atoms: O_2  and  C_3 
REMARK    2  A    between atoms: C_6  and  C_9 
REMARK    3  A    between atoms: C_10  and  C_11 
REMARK       I    between atoms: C_11  and  N_13 
REMARK    4  A    between atoms: N_13  and  C_14 
REMARK    5  A    between atoms: C_19  and  C_20 
REMARK    6  A    between atoms: C_24  and  O_25 
REMARK    7  A    between atoms: C_27  and  O_28 
ROOT
HETATM    1  C   UNL     1       5.244   2.756   3.751  0.00  0.00     0.039 C 
HETATM    2  C   UNL     1       5.308   4.146   3.875  0.00  0.00     0.131 C 
HETATM    3  N   UNL     1       6.195   4.360   4.890  0.00  0.00    -0.271 N 
HETATM    4  H   UNL     1       6.431   5.246   5.323  0.00  0.00     0.189 HD
HETATM    5  N   UNL     1       6.810   3.270   5.345  0.00  0.00    -0.173 NA
HETATM    6  C   UNL     1       6.193   2.250   4.729  0.00  0.00     0.103 C 
ENDROOT
BRANCH   6   7
HETATM    7  C   UNL     1       6.530   0.851   5.062  0.00  0.00     0.030 A 
HETATM    8  C   UNL     1       6.621  -0.102   4.032  0.00  0.00     0.043 A 
HETATM    9  C   UNL     1       6.706  -1.462   4.327  0.00  0.00     0.068 A 
HETATM   10 CL   UNL     1       6.621  -2.615   3.048  0.00  0.00    -0.081 Cl
HETATM   11  C   UNL     1       6.803  -1.885   5.651  0.00  0.00     0.090 A 
HETATM   12  C   UNL     1       6.836  -0.957   6.683  0.00  0.00     0.075 A 
HETATM   13  C   UNL     1       6.674   0.402   6.392  0.00  0.00     0.081 A 
BRANCH  11  14
HETATM   14  O   UNL     1       6.835  -3.209   5.992  0.00  0.00    -0.359 OA
HETATM   15  H   UNL     1       6.683  -3.721   5.175  0.00  0.00     0.217 HD
ENDBRANCH  11  14
BRANCH  13  16
HETATM   16  O   UNL     1       6.599   1.280   7.441  0.00  0.00    -0.360 OA
HETATM   17  H   UNL     1       6.693   0.800   8.278  0.00  0.00     0.217 HD
ENDBRANCH  13  16
ENDBRANCH   6   7
BRANCH   1  18
HETATM   18  C   UNL     1       4.413   2.027   2.785  0.00  0.00    -0.021 A 
HETATM   19  C   UNL     1       4.310   2.456   1.455  0.00  0.00     0.015 A 
HETATM   20  C   UNL     1       3.596   1.717   0.500  0.00  0.00     0.037 A 
HETATM   21  C   UNL     1       3.016   0.500   0.843  0.00  0.00     0.068 A 
HETATM   22  C   UNL     1       3.114   0.057   2.161  0.00  0.00     0.037 A 
HETATM   23  C   UNL     1       3.774   0.827   3.130  0.00  0.00     0.015 A 
BRANCH  21  24
HETATM   24  O   UNL     1       2.346  -0.337  -0.007  0.00  0.00    -0.356 OA
HETATM   25  C   UNL     1       2.189   0.110  -1.349  0.00  0.00     0.210 C 
ENDBRANCH  21  24
ENDBRANCH   1  18
BRANCH   2  26
HETATM   26  C   UNL     1       4.601   5.214   3.202  0.00  0.00     0.270 C 
HETATM   27  O   UNL     1       3.503   5.074   2.679  0.00  0.00    -0.266 OA
HETATM   28  N   UNL     1       5.259   6.437   3.154  0.00  0.00    -0.356 N 
HETATM   29  H   UNL     1       6.229   6.492   3.421  0.00  0.00     0.162 HD
BRANCH  28  30
HETATM   30  C   UNL     1       4.732   7.483   2.293  0.00  0.00     0.118 C 
HETATM   31  C   UNL     1       5.594   8.732   2.284  0.00  0.00     0.026 C 
ENDBRANCH  28  30
ENDBRANCH   2  26
TORSDOF 7
