MODEL 1
REMARK VINA RESULT:    -7.411      0.000      0.000
REMARK INTER + INTRA:         -12.228
REMARK INTER:                 -10.308
REMARK INTRA:                  -1.920
REMARK UNBOUND:                -1.568
REMARK  8 active torsions:
REMARK  status: ('A' for Active; 'I' for Inactive)
REMARK    1  A    between atoms: C_2  and  C_3 
REMARK    2  A    between atoms: C_3  and  C_4 
REMARK    3  A    between atoms: C_4  and  N_5 
REMARK       I    between atoms: N_5  and  C_7 
REMARK    4  A    between atoms: C_7  and  C_9 
REMARK    5  A    between atoms: C_16  and  C_20 
REMARK    6  A    between atoms: C_17  and  O_19 
REMARK       I    between atoms: C_20  and  N_22 
REMARK    7  A    between atoms: N_22  and  C_24 
REMARK    8  A    between atoms: C_27  and  N_30 
ROOT
HETATM    1  C   UNL     1       0.897   5.989  18.204  0.00  0.00     0.157 A 
HETATM    2  N   UNL     1       0.541   6.883  17.257  0.00  0.00    -0.168 NA
HETATM    3  N   UNL     1       1.381   7.914  17.434  0.00  0.00    -0.277 N 
HETATM    4  H   UNL     1       1.280   8.724  16.830  0.00  0.00     0.189 HD
HETATM    5  C   UNL     1       2.007   6.482  18.956  0.00  0.00     0.029 A 
HETATM    6  C   UNL     1       2.286   7.740  18.440  0.00  0.00     0.065 A 
HETATM    7  C   UNL     1       2.787   6.005  20.024  0.00  0.00     0.036 C 
HETATM    8  C   UNL     1       3.887   6.745  20.481  0.00  0.00     0.066 C 
HETATM    9  C   UNL     1       4.065   8.051  19.997  0.00  0.00     0.083 C 
HETATM   10  C   UNL     1       3.288   8.568  18.952  0.00  0.00     0.069 C 
ENDROOT
BRANCH   8  11
HETATM   11  C   UNL     1       4.833   6.171  21.504  0.00  0.00     0.260 C 
HETATM   12  O   UNL     1       5.723   5.440  21.061  0.00  0.00    -0.267 OA
HETATM   13  N   UNL     1       4.685   6.483  22.868  0.00  0.00    -0.318 N 
HETATM   14  C   UNL     1       5.689   6.051  23.828  0.00  0.00     0.159 C 
BRANCH  13  15
HETATM   15  C   UNL     1       3.518   7.063  23.422  0.00  0.00     0.037 A 
HETATM   16  C   UNL     1       3.478   8.429  23.688  0.00  0.00     0.032 A 
HETATM   17  C   UNL     1       2.423   8.965  24.434  0.00  0.00     0.031 A 
HETATM   18  C   UNL     1       1.401   8.159  24.956  0.00  0.00     0.030 A 
HETATM   19  C   UNL     1       1.430   6.800  24.602  0.00  0.00     0.031 A 
HETATM   20  C   UNL     1       2.454   6.255  23.818  0.00  0.00     0.032 A 
BRANCH  18  21
HETATM   21  N   UNL     1       0.396   8.668  25.749  0.00  0.00    -0.377 N 
HETATM   22  C   UNL     1       0.110   8.177  27.102  0.00  0.00     0.149 C 
HETATM   23  C   UNL     1      -0.140   9.400  27.997  0.00  0.00     0.187 C 
HETATM   24  O   UNL     1      -1.240  10.191  27.510  0.00  0.00    -0.388 OA
HETATM   25  C   UNL     1      -0.970  10.659  26.171  0.00  0.00     0.187 C 
HETATM   26  C   UNL     1      -0.696   9.495  25.204  0.00  0.00     0.149 C 
ENDBRANCH  18  21
ENDBRANCH  13  15
ENDBRANCH   8  11
BRANCH   9  27
HETATM   27  O   UNL     1       4.974   8.921  20.541  0.00  0.00    -0.360 OA
HETATM   28  H   UNL     1       4.580   9.264  21.374  0.00  0.00     0.217 HD
ENDBRANCH   9  27
BRANCH   1  29
HETATM   29  C   UNL     1       0.245   4.669  18.398  0.00  0.00     0.274 C 
HETATM   30  N   UNL     1       0.864   3.510  17.894  0.00  0.00    -0.351 N 
HETATM   31  C   UNL     1       1.851   3.583  16.829  0.00  0.00     0.152 C 
HETATM   32  O   UNL     1      -0.843   4.589  18.973  0.00  0.00    -0.266 OA
BRANCH  30  33
HETATM   33  C   UNL     1       0.238   2.214  18.162  0.00  0.00     0.125 C 
BRANCH  33  34
HETATM   34  C   UNL     1       0.496   1.672  19.570  0.00  0.00     0.020 C 
BRANCH  34  35
HETATM   35  C   UNL     1       1.954   1.822  20.006  0.00  0.00    -0.003 C 
HETATM   36  C   UNL     1       2.067   2.654  21.273  0.00  0.00     0.005 C 
ENDBRANCH  34  35
ENDBRANCH  33  34
ENDBRANCH  30  33
ENDBRANCH   1  29
TORSDOF 8
ENDMDL
MODEL 2
REMARK VINA RESULT:    -7.339      2.364      8.110
REMARK INTER + INTRA:         -12.125
REMARK INTER:                 -11.278
REMARK INTRA:                  -0.848
REMARK UNBOUND:                -1.568
REMARK  8 active torsions:
REMARK  status: ('A' for Active; 'I' for Inactive)
REMARK    1  A    between atoms: C_2  and  C_3 
REMARK    2  A    between atoms: C_3  and  C_4 
REMARK    3  A    between atoms: C_4  and  N_5 
REMARK       I    between atoms: N_5  and  C_7 
REMARK    4  A    between atoms: C_7  and  C_9 
REMARK    5  A    between atoms: C_16  and  C_20 
REMARK    6  A    between atoms: C_17  and  O_19 
REMARK       I    between atoms: C_20  and  N_22 
REMARK    7  A    between atoms: N_22  and  C_24 
REMARK    8  A    between atoms: C_27  and  N_30 
ROOT
HETATM    1  C   UNL     1       0.557   8.934  25.228  0.00  0.00     0.157 A 
HETATM    2  N   UNL     1      -0.437   8.371  25.948  0.00  0.00    -0.168 NA
HETATM    3  N   UNL     1      -0.086   7.081  26.056  0.00  0.00    -0.277 N 
HETATM    4  H   UNL     1      -0.712   6.455  26.553  0.00  0.00     0.189 HD
HETATM    5  C   UNL     1       1.555   7.960  24.919  0.00  0.00     0.029 A 
HETATM    6  C   UNL     1       1.099   6.765  25.459  0.00  0.00     0.065 A 
HETATM    7  C   UNL     1       2.780   7.963  24.229  0.00  0.00     0.036 C 
HETATM    8  C   UNL     1       3.567   6.802  24.183  0.00  0.00     0.066 C 
HETATM    9  C   UNL     1       3.017   5.600  24.653  0.00  0.00     0.083 C 
HETATM   10  C   UNL     1       1.786   5.557  25.322  0.00  0.00     0.069 C 
ENDROOT
BRANCH   8  11
HETATM   11  C   UNL     1       4.955   6.834  23.598  0.00  0.00     0.260 C 
HETATM   12  O   UNL     1       5.874   7.001  24.405  0.00  0.00    -0.267 OA
HETATM   13  N   UNL     1       5.153   6.666  22.215  0.00  0.00    -0.318 N 
HETATM   14  C   UNL     1       6.500   6.544  21.680  0.00  0.00     0.159 C 
BRANCH  13  15
HETATM   15  C   UNL     1       4.119   6.771  21.253  0.00  0.00     0.037 A 
HETATM   16  C   UNL     1       3.314   5.671  20.972  0.00  0.00     0.032 A 
HETATM   17  C   UNL     1       2.446   5.701  19.876  0.00  0.00     0.031 A 
HETATM   18  C   UNL     1       2.376   6.808  19.018  0.00  0.00     0.030 A 
HETATM   19  C   UNL     1       3.142   7.930  19.375  0.00  0.00     0.031 A 
HETATM   20  C   UNL     1       3.982   7.933  20.497  0.00  0.00     0.032 A 
BRANCH  18  21
HETATM   21  N   UNL     1       1.575   6.820  17.897  0.00  0.00    -0.377 N 
HETATM   22  C   UNL     1       1.824   7.685  16.738  0.00  0.00     0.149 C 
HETATM   23  C   UNL     1       1.604   6.841  15.473  0.00  0.00     0.187 C 
HETATM   24  O   UNL     1       0.268   6.309  15.422  0.00  0.00    -0.388 OA
HETATM   25  C   UNL     1       0.013   5.474  16.572  0.00  0.00     0.187 C 
HETATM   26  C   UNL     1       0.221   6.239  17.890  0.00  0.00     0.149 C 
ENDBRANCH  18  21
ENDBRANCH  13  15
ENDBRANCH   8  11
BRANCH   9  27
HETATM   27  O   UNL     1       3.620   4.385  24.451  0.00  0.00    -0.360 OA
HETATM   28  H   UNL     1       4.587   4.553  24.384  0.00  0.00     0.217 HD
ENDBRANCH   9  27
BRANCH   1  29
HETATM   29  C   UNL     1       0.611  10.371  24.853  0.00  0.00     0.274 C 
HETATM   30  N   UNL     1      -0.586  11.097  24.723  0.00  0.00    -0.351 N 
HETATM   31  C   UNL     1      -1.856  10.426  24.496  0.00  0.00     0.152 C 
HETATM   32  O   UNL     1       1.694  10.917  24.632  0.00  0.00    -0.266 OA
BRANCH  30  33
HETATM   33  C   UNL     1      -0.503  12.528  24.425  0.00  0.00     0.125 C 
BRANCH  33  34
HETATM   34  C   UNL     1      -1.443  12.992  23.310  0.00  0.00     0.020 C 
BRANCH  34  35
HETATM   35  C   UNL     1      -0.767  13.029  21.939  0.00  0.00    -0.003 C 
HETATM   36  C   UNL     1      -1.769  12.784  20.823  0.00  0.00     0.005 C 
ENDBRANCH  34  35
ENDBRANCH  33  34
ENDBRANCH  30  33
ENDBRANCH   1  29
TORSDOF 8
ENDMDL
MODEL 3
REMARK VINA RESULT:    -7.338      2.558      4.607
REMARK INTER + INTRA:         -12.124
REMARK INTER:                 -10.762
REMARK INTRA:                  -1.362
REMARK UNBOUND:                -1.568
REMARK  8 active torsions:
REMARK  status: ('A' for Active; 'I' for Inactive)
REMARK    1  A    between atoms: C_2  and  C_3 
REMARK    2  A    between atoms: C_3  and  C_4 
REMARK    3  A    between atoms: C_4  and  N_5 
REMARK       I    between atoms: N_5  and  C_7 
REMARK    4  A    between atoms: C_7  and  C_9 
REMARK    5  A    between atoms: C_16  and  C_20 
REMARK    6  A    between atoms: C_17  and  O_19 
REMARK       I    between atoms: C_20  and  N_22 
REMARK    7  A    between atoms: N_22  and  C_24 
REMARK    8  A    between atoms: C_27  and  N_30 
ROOT
HETATM    1  C   UNL     1       3.990   5.909  21.028  0.00  0.00     0.157 A 
HETATM    2  N   UNL     1       5.149   6.423  20.563  0.00  0.00    -0.168 NA
HETATM    3  N   UNL     1       5.791   6.852  21.660  0.00  0.00    -0.277 N 
HETATM    4  H   UNL     1       6.695   7.299  21.542  0.00  0.00     0.189 HD
HETATM    5  C   UNL     1       3.945   6.002  22.452  0.00  0.00     0.029 A 
HETATM    6  C   UNL     1       5.123   6.632  22.829  0.00  0.00     0.065 A 
HETATM    7  C   UNL     1       3.028   5.635  23.453  0.00  0.00     0.036 C 
HETATM    8  C   UNL     1       3.352   5.812  24.807  0.00  0.00     0.066 C 
HETATM    9  C   UNL     1       4.505   6.544  25.130  0.00  0.00     0.083 C 
HETATM   10  C   UNL     1       5.427   6.947  24.155  0.00  0.00     0.069 C 
ENDROOT
BRANCH   8  11
HETATM   11  C   UNL     1       2.458   5.270  25.891  0.00  0.00     0.260 C 
HETATM   12  O   UNL     1       2.686   4.110  26.245  0.00  0.00    -0.267 OA
HETATM   13  N   UNL     1       1.445   6.072  26.450  0.00  0.00    -0.318 N 
HETATM   14  C   UNL     1       0.689   5.596  27.599  0.00  0.00     0.159 C 
BRANCH  13  15
HETATM   15  C   UNL     1       0.979   7.274  25.866  0.00  0.00     0.037 A 
HETATM   16  C   UNL     1       1.568   8.488  26.207  0.00  0.00     0.032 A 
HETATM   17  C   UNL     1       0.974   9.690  25.809  0.00  0.00     0.031 A 
HETATM   18  C   UNL     1      -0.230   9.717  25.089  0.00  0.00     0.030 A 
HETATM   19  C   UNL     1      -0.754   8.476  24.694  0.00  0.00     0.031 A 
HETATM   20  C   UNL     1      -0.147   7.263  25.045  0.00  0.00     0.032 A 
BRANCH  18  21
HETATM   21  N   UNL     1      -0.859  10.896  24.753  0.00  0.00    -0.377 N 
HETATM   22  C   UNL     1      -0.200  12.207  24.814  0.00  0.00     0.149 C 
HETATM   23  C   UNL     1      -0.589  12.981  23.546  0.00  0.00     0.187 C 
HETATM   24  O   UNL     1      -2.016  13.144  23.447  0.00  0.00    -0.388 OA
HETATM   25  C   UNL     1      -2.669  11.857  23.408  0.00  0.00     0.187 C 
HETATM   26  C   UNL     1      -2.324  11.004  24.641  0.00  0.00     0.149 C 
ENDBRANCH  18  21
ENDBRANCH  13  15
ENDBRANCH   8  11
BRANCH   9  27
HETATM   27  O   UNL     1       4.784   6.951  26.409  0.00  0.00    -0.360 OA
HETATM   28  H   UNL     1       5.239   7.820  26.341  0.00  0.00     0.217 HD
ENDBRANCH   9  27
BRANCH   1  29
HETATM   29  C   UNL     1       2.940   5.301  20.171  0.00  0.00     0.274 C 
HETATM   30  N   UNL     1       2.461   6.011  19.054  0.00  0.00    -0.351 N 
HETATM   31  C   UNL     1       2.608   7.454  18.957  0.00  0.00     0.152 C 
HETATM   32  O   UNL     1       2.470   4.195  20.449  0.00  0.00    -0.266 OA
BRANCH  30  33
HETATM   33  C   UNL     1       1.480   5.360  18.185  0.00  0.00     0.125 C 
BRANCH  33  34
HETATM   34  C   UNL     1       0.310   6.259  17.776  0.00  0.00     0.020 C 
BRANCH  34  35
HETATM   35  C   UNL     1       0.102   6.311  16.262  0.00  0.00    -0.003 C 
HETATM   36  C   UNL     1       1.429   6.353  15.523  0.00  0.00     0.005 C 
ENDBRANCH  34  35
ENDBRANCH  33  34
ENDBRANCH  30  33
ENDBRANCH   1  29
TORSDOF 8
ENDMDL
MODEL 4
REMARK VINA RESULT:    -7.216      2.315      3.651
REMARK INTER + INTRA:         -11.948
REMARK INTER:                 -10.538
REMARK INTRA:                  -1.409
REMARK UNBOUND:                -1.568
REMARK  8 active torsions:
REMARK  status: ('A' for Active; 'I' for Inactive)
REMARK    1  A    between atoms: C_2  and  C_3 
REMARK    2  A    between atoms: C_3  and  C_4 
REMARK    3  A    between atoms: C_4  and  N_5 
REMARK       I    between atoms: N_5  and  C_7 
REMARK    4  A    between atoms: C_7  and  C_9 
REMARK    5  A    between atoms: C_16  and  C_20 
REMARK    6  A    between atoms: C_17  and  O_19 
REMARK       I    between atoms: C_20  and  N_22 
REMARK    7  A    between atoms: N_22  and  C_24 
REMARK    8  A    between atoms: C_27  and  N_30 
ROOT
HETATM    1  C   UNL     1       4.664   6.670  18.883  0.00  0.00     0.157 A 
HETATM    2  N   UNL     1       5.625   7.555  18.541  0.00  0.00    -0.168 NA
HETATM    3  N   UNL     1       6.438   7.597  19.608  0.00  0.00    -0.277 N 
HETATM    4  H   UNL     1       7.236   8.224  19.577  0.00  0.00     0.189 HD
HETATM    5  C   UNL     1       4.921   6.139  20.184  0.00  0.00     0.029 A 
HETATM    6  C   UNL     1       6.073   6.773  20.631  0.00  0.00     0.065 A 
HETATM    7  C   UNL     1       4.295   5.207  21.029  0.00  0.00     0.036 C 
HETATM    8  C   UNL     1       4.885   4.854  22.252  0.00  0.00     0.066 C 
HETATM    9  C   UNL     1       5.989   5.595  22.703  0.00  0.00     0.083 C 
HETATM   10  C   UNL     1       6.622   6.550  21.896  0.00  0.00     0.069 C 
ENDROOT
BRANCH   8  11
HETATM   11  C   UNL     1       4.319   3.735  23.088  0.00  0.00     0.260 C 
HETATM   12  O   UNL     1       4.501   2.595  22.652  0.00  0.00    -0.267 OA
HETATM   13  N   UNL     1       3.644   4.013  24.291  0.00  0.00    -0.318 N 
HETATM   14  C   UNL     1       3.237   2.924  25.166  0.00  0.00     0.159 C 
BRANCH  13  15
HETATM   15  C   UNL     1       3.171   5.298  24.652  0.00  0.00     0.037 A 
HETATM   16  C   UNL     1       3.609   5.895  25.830  0.00  0.00     0.032 A 
HETATM   17  C   UNL     1       2.983   7.055  26.300  0.00  0.00     0.031 A 
HETATM   18  C   UNL     1       1.894   7.632  25.629  0.00  0.00     0.030 A 
HETATM   19  C   UNL     1       1.531   7.050  24.404  0.00  0.00     0.031 A 
HETATM   20  C   UNL     1       2.177   5.915  23.896  0.00  0.00     0.032 A 
BRANCH  18  21
HETATM   21  N   UNL     1       1.228   8.733  26.121  0.00  0.00    -0.377 N 
HETATM   22  C   UNL     1       1.035   9.968  25.351  0.00  0.00     0.149 C 
HETATM   23  C   UNL     1      -0.412  10.432  25.574  0.00  0.00     0.187 C 
HETATM   24  O   UNL     1      -0.680  10.665  26.969  0.00  0.00    -0.388 OA
HETATM   25  C   UNL     1      -0.471   9.458  27.732  0.00  0.00     0.187 C 
HETATM   26  C   UNL     1       0.957   8.913  27.558  0.00  0.00     0.149 C 
ENDBRANCH  18  21
ENDBRANCH  13  15
ENDBRANCH   8  11
BRANCH   9  27
HETATM   27  O   UNL     1       6.493   5.468  23.971  0.00  0.00    -0.360 OA
HETATM   28  H   UNL     1       5.859   5.912  24.578  0.00  0.00     0.217 HD
ENDBRANCH   9  27
BRANCH   1  29
HETATM   29  C   UNL     1       3.528   6.286  18.006  0.00  0.00     0.274 C 
HETATM   30  N   UNL     1       2.622   7.272  17.576  0.00  0.00    -0.351 N 
HETATM   31  C   UNL     1       2.478   8.530  18.291  0.00  0.00     0.152 C 
HETATM   32  O   UNL     1       3.364   5.109  17.679  0.00  0.00    -0.266 OA
BRANCH  30  33
HETATM   33  C   UNL     1       1.555   6.881  16.653  0.00  0.00     0.125 C 
BRANCH  33  34
HETATM   34  C   UNL     1       0.177   6.749  17.307  0.00  0.00     0.020 C 
BRANCH  34  35
HETATM   35  C   UNL     1      -0.111   5.332  17.805  0.00  0.00    -0.003 C 
HETATM   36  C   UNL     1       0.051   5.235  19.313  0.00  0.00     0.005 C 
ENDBRANCH  34  35
ENDBRANCH  33  34
ENDBRANCH  30  33
ENDBRANCH   1  29
TORSDOF 8
ENDMDL
MODEL 5
REMARK VINA RESULT:    -7.131      3.363      8.355
REMARK INTER + INTRA:         -11.825
REMARK INTER:                 -10.136
REMARK INTRA:                  -1.689
REMARK UNBOUND:                -1.568
REMARK  8 active torsions:
REMARK  status: ('A' for Active; 'I' for Inactive)
REMARK    1  A    between atoms: C_2  and  C_3 
REMARK    2  A    between atoms: C_3  and  C_4 
REMARK    3  A    between atoms: C_4  and  N_5 
REMARK       I    between atoms: N_5  and  C_7 
REMARK    4  A    between atoms: C_7  and  C_9 
REMARK    5  A    between atoms: C_16  and  C_20 
REMARK    6  A    between atoms: C_17  and  O_19 
REMARK       I    between atoms: C_20  and  N_22 
REMARK    7  A    between atoms: N_22  and  C_24 
REMARK    8  A    between atoms: C_27  and  N_30 
ROOT
HETATM    1  C   UNL     1       2.012   8.017  27.619  0.00  0.00     0.157 A 
HETATM    2  N   UNL     1       2.758   8.891  28.328  0.00  0.00    -0.168 NA
HETATM    3  N   UNL     1       3.852   8.197  28.675  0.00  0.00    -0.277 N 
HETATM    4  H   UNL     1       4.555   8.662  29.240  0.00  0.00     0.189 HD
HETATM    5  C   UNL     1       2.691   6.765  27.509  0.00  0.00     0.029 A 
HETATM    6  C   UNL     1       3.875   6.911  28.217  0.00  0.00     0.065 A 
HETATM    7  C   UNL     1       2.419   5.527  26.900  0.00  0.00     0.036 C 
HETATM    8  C   UNL     1       3.377   4.502  26.927  0.00  0.00     0.066 C 
HETATM    9  C   UNL     1       4.510   4.663  27.739  0.00  0.00     0.083 C 
HETATM   10  C   UNL     1       4.797   5.876  28.381  0.00  0.00     0.069 C 
ENDROOT
BRANCH   8  11
HETATM   11  C   UNL     1       3.174   3.235  26.136  0.00  0.00     0.260 C 
HETATM   12  O   UNL     1       3.032   2.205  26.800  0.00  0.00    -0.267 OA
HETATM   13  N   UNL     1       3.141   3.269  24.729  0.00  0.00    -0.318 N 
HETATM   14  C   UNL     1       2.792   2.072  23.980  0.00  0.00     0.159 C 
BRANCH  13  15
HETATM   15  C   UNL     1       3.591   4.366  23.956  0.00  0.00     0.037 A 
HETATM   16  C   UNL     1       2.681   5.312  23.492  0.00  0.00     0.032 A 
HETATM   17  C   UNL     1       3.083   6.265  22.551  0.00  0.00     0.031 A 
HETATM   18  C   UNL     1       4.384   6.286  22.028  0.00  0.00     0.030 A 
HETATM   19  C   UNL     1       5.297   5.370  22.575  0.00  0.00     0.031 A 
HETATM   20  C   UNL     1       4.923   4.438  23.552  0.00  0.00     0.032 A 
BRANCH  18  21
HETATM   21  N   UNL     1       4.769   7.178  21.050  0.00  0.00    -0.377 N 
HETATM   22  C   UNL     1       6.153   7.632  20.873  0.00  0.00     0.149 C 
HETATM   23  C   UNL     1       6.454   7.628  19.367  0.00  0.00     0.187 C 
HETATM   24  O   UNL     1       5.551   8.487  18.648  0.00  0.00    -0.388 OA
HETATM   25  C   UNL     1       4.186   8.055  18.837  0.00  0.00     0.187 C 
HETATM   26  C   UNL     1       3.799   8.019  20.326  0.00  0.00     0.149 C 
ENDBRANCH  18  21
ENDBRANCH  13  15
ENDBRANCH   8  11
BRANCH   9  27
HETATM   27  O   UNL     1       5.384   3.639  27.997  0.00  0.00    -0.360 OA
HETATM   28  H   UNL     1       5.120   3.246  28.859  0.00  0.00     0.217 HD
ENDBRANCH   9  27
BRANCH   1  29
HETATM   29  C   UNL     1       0.694   8.337  27.013  0.00  0.00     0.274 C 
HETATM   30  N   UNL     1       0.623   8.674  25.649  0.00  0.00    -0.351 N 
HETATM   31  C   UNL     1       1.790   9.155  24.928  0.00  0.00     0.152 C 
HETATM   32  O   UNL     1      -0.327   8.335  27.704  0.00  0.00    -0.266 OA
BRANCH  30  33
HETATM   33  C   UNL     1      -0.695   8.914  25.060  0.00  0.00     0.125 C 
BRANCH  33  34
HETATM   34  C   UNL     1      -0.888  10.328  24.507  0.00  0.00     0.020 C 
BRANCH  34  35
HETATM   35  C   UNL     1      -2.346  10.786  24.539  0.00  0.00    -0.003 C 
HETATM   36  C   UNL     1      -2.586  11.934  23.572  0.00  0.00     0.005 C 
ENDBRANCH  34  35
ENDBRANCH  33  34
ENDBRANCH  30  33
ENDBRANCH   1  29
TORSDOF 8
ENDMDL
MODEL 6
REMARK VINA RESULT:    -7.111      2.602      4.356
REMARK INTER + INTRA:         -11.797
REMARK INTER:                 -10.095
REMARK INTRA:                  -1.702
REMARK UNBOUND:                -1.568
REMARK  8 active torsions:
REMARK  status: ('A' for Active; 'I' for Inactive)
REMARK    1  A    between atoms: C_2  and  C_3 
REMARK    2  A    between atoms: C_3  and  C_4 
REMARK    3  A    between atoms: C_4  and  N_5 
REMARK       I    between atoms: N_5  and  C_7 
REMARK    4  A    between atoms: C_7  and  C_9 
REMARK    5  A    between atoms: C_16  and  C_20 
REMARK    6  A    between atoms: C_17  and  O_19 
REMARK       I    between atoms: C_20  and  N_22 
REMARK    7  A    between atoms: N_22  and  C_24 
REMARK    8  A    between atoms: C_27  and  N_30 
ROOT
HETATM    1  C   UNL     1       3.693   6.805  21.018  0.00  0.00     0.157 A 
HETATM    2  N   UNL     1       4.703   7.630  20.669  0.00  0.00    -0.168 NA
HETATM    3  N   UNL     1       5.204   8.062  21.836  0.00  0.00    -0.277 N 
HETATM    4  H   UNL     1       5.976   8.720  21.812  0.00  0.00     0.189 HD
HETATM    5  C   UNL     1       3.600   6.712  22.440  0.00  0.00     0.029 A 
HETATM    6  C   UNL     1       4.586   7.551  22.940  0.00  0.00     0.065 A 
HETATM    7  C   UNL     1       2.778   6.022  23.349  0.00  0.00     0.036 C 
HETATM    8  C   UNL     1       3.025   6.105  24.727  0.00  0.00     0.066 C 
HETATM    9  C   UNL     1       3.964   7.043  25.185  0.00  0.00     0.083 C 
HETATM   10  C   UNL     1       4.781   7.766  24.306  0.00  0.00     0.069 C 
ENDROOT
BRANCH   8  11
HETATM   11  C   UNL     1       2.267   5.241  25.701  0.00  0.00     0.260 C 
HETATM   12  O   UNL     1       2.651   4.072  25.792  0.00  0.00    -0.267 OA
HETATM   13  N   UNL     1       1.202   5.774  26.450  0.00  0.00    -0.318 N 
HETATM   14  C   UNL     1       0.577   4.979  27.496  0.00  0.00     0.159 C 
BRANCH  13  15
HETATM   15  C   UNL     1       0.564   7.002  26.151  0.00  0.00     0.037 A 
HETATM   16  C   UNL     1      -0.338   7.079  25.094  0.00  0.00     0.032 A 
HETATM   17  C   UNL     1      -0.798   8.325  24.656  0.00  0.00     0.031 A 
HETATM   18  C   UNL     1      -0.354   9.523  25.236  0.00  0.00     0.030 A 
HETATM   19  C   UNL     1       0.493   9.406  26.350  0.00  0.00     0.031 A 
HETATM   20  C   UNL     1       0.927   8.163  26.830  0.00  0.00     0.032 A 
BRANCH  18  21
HETATM   21  N   UNL     1      -0.748  10.757  24.767  0.00  0.00    -0.377 N 
HETATM   22  C   UNL     1      -0.054  12.006  25.102  0.00  0.00     0.149 C 
HETATM   23  C   UNL     1       0.057  12.835  23.814  0.00  0.00     0.187 C 
HETATM   24  O   UNL     1      -1.240  13.118  23.258  0.00  0.00    -0.388 OA
HETATM   25  C   UNL     1      -1.934  11.891  22.946  0.00  0.00     0.187 C 
HETATM   26  C   UNL     1      -2.081  10.988  24.183  0.00  0.00     0.149 C 
ENDBRANCH  18  21
ENDBRANCH  13  15
ENDBRANCH   8  11
BRANCH   9  27
HETATM   27  O   UNL     1       4.114   7.346  26.514  0.00  0.00    -0.360 OA
HETATM   28  H   UNL     1       5.045   7.138  26.753  0.00  0.00     0.217 HD
ENDBRANCH   9  27
BRANCH   1  29
HETATM   29  C   UNL     1       2.834   6.076  20.050  0.00  0.00     0.274 C 
HETATM   30  N   UNL     1       2.924   4.674  19.964  0.00  0.00    -0.351 N 
HETATM   31  C   UNL     1       4.102   3.963  20.434  0.00  0.00     0.152 C 
HETATM   32  O   UNL     1       2.067   6.693  19.308  0.00  0.00    -0.266 OA
BRANCH  30  33
HETATM   33  C   UNL     1       2.015   3.973  19.056  0.00  0.00     0.125 C 
BRANCH  33  34
HETATM   34  C   UNL     1       0.716   3.498  19.710  0.00  0.00     0.020 C 
BRANCH  34  35
HETATM   35  C   UNL     1      -0.478   3.532  18.755  0.00  0.00    -0.003 C 
HETATM   36  C   UNL     1      -0.426   4.754  17.852  0.00  0.00     0.005 C 
ENDBRANCH  34  35
ENDBRANCH  33  34
ENDBRANCH  30  33
ENDBRANCH   1  29
TORSDOF 8
ENDMDL
MODEL 7
REMARK VINA RESULT:    -7.101      2.474      7.263
REMARK INTER + INTRA:         -11.783
REMARK INTER:                  -9.829
REMARK INTRA:                  -1.954
REMARK UNBOUND:                -1.568
REMARK  8 active torsions:
REMARK  status: ('A' for Active; 'I' for Inactive)
REMARK    1  A    between atoms: C_2  and  C_3 
REMARK    2  A    between atoms: C_3  and  C_4 
REMARK    3  A    between atoms: C_4  and  N_5 
REMARK       I    between atoms: N_5  and  C_7 
REMARK    4  A    between atoms: C_7  and  C_9 
REMARK    5  A    between atoms: C_16  and  C_20 
REMARK    6  A    between atoms: C_17  and  O_19 
REMARK       I    between atoms: C_20  and  N_22 
REMARK    7  A    between atoms: N_22  and  C_24 
REMARK    8  A    between atoms: C_27  and  N_30 
ROOT
HETATM    1  C   UNL     1       1.720   8.012  24.868  0.00  0.00     0.157 A 
HETATM    2  N   UNL     1       1.944   9.312  24.582  0.00  0.00    -0.168 NA
HETATM    3  N   UNL     1       3.160   9.328  24.016  0.00  0.00    -0.277 N 
HETATM    4  H   UNL     1       3.545  10.224  23.733  0.00  0.00     0.189 HD
HETATM    5  C   UNL     1       2.822   7.213  24.432  0.00  0.00     0.029 A 
HETATM    6  C   UNL     1       3.745   8.101  23.897  0.00  0.00     0.065 A 
HETATM    7  C   UNL     1       3.137   5.844  24.451  0.00  0.00     0.036 C 
HETATM    8  C   UNL     1       4.316   5.382  23.845  0.00  0.00     0.066 C 
HETATM    9  C   UNL     1       5.260   6.325  23.411  0.00  0.00     0.083 C 
HETATM   10  C   UNL     1       4.988   7.700  23.403  0.00  0.00     0.069 C 
ENDROOT
BRANCH   8  11
HETATM   11  C   UNL     1       4.584   3.906  23.705  0.00  0.00     0.260 C 
HETATM   12  O   UNL     1       5.145   3.369  24.664  0.00  0.00    -0.267 OA
HETATM   13  N   UNL     1       4.192   3.216  22.543  0.00  0.00    -0.318 N 
HETATM   14  C   UNL     1       4.315   1.768  22.479  0.00  0.00     0.159 C 
BRANCH  13  15
HETATM   15  C   UNL     1       3.827   3.854  21.333  0.00  0.00     0.037 A 
HETATM   16  C   UNL     1       4.810   4.255  20.432  0.00  0.00     0.032 A 
HETATM   17  C   UNL     1       4.474   5.076  19.351  0.00  0.00     0.031 A 
HETATM   18  C   UNL     1       3.165   5.541  19.153  0.00  0.00     0.030 A 
HETATM   19  C   UNL     1       2.185   5.053  20.033  0.00  0.00     0.031 A 
HETATM   20  C   UNL     1       2.496   4.193  21.094  0.00  0.00     0.032 A 
BRANCH  18  21
HETATM   21  N   UNL     1       2.838   6.405  18.131  0.00  0.00    -0.377 N 
HETATM   22  C   UNL     1       2.504   5.958  16.773  0.00  0.00     0.149 C 
HETATM   23  C   UNL     1       1.292   6.776  16.302  0.00  0.00     0.187 C 
HETATM   24  O   UNL     1       1.576   8.187  16.307  0.00  0.00    -0.388 OA
HETATM   25  C   UNL     1       1.926   8.625  17.637  0.00  0.00     0.187 C 
HETATM   26  C   UNL     1       3.130   7.848  18.197  0.00  0.00     0.149 C 
ENDBRANCH  18  21
ENDBRANCH  13  15
ENDBRANCH   8  11
BRANCH   9  27
HETATM   27  O   UNL     1       6.523   5.972  23.010  0.00  0.00    -0.360 OA
HETATM   28  H   UNL     1       7.002   5.661  23.810  0.00  0.00     0.217 HD
ENDBRANCH   9  27
BRANCH   1  29
HETATM   29  C   UNL     1       0.483   7.495  25.508  0.00  0.00     0.274 C 
HETATM   30  N   UNL     1       0.438   7.343  26.906  0.00  0.00    -0.351 N 
HETATM   31  C   UNL     1       1.656   7.236  27.693  0.00  0.00     0.152 C 
HETATM   32  O   UNL     1      -0.490   7.176  24.820  0.00  0.00    -0.266 OA
BRANCH  30  33
HETATM   33  C   UNL     1      -0.816   6.903  27.518  0.00  0.00     0.125 C 
BRANCH  33  34
HETATM   34  C   UNL     1      -0.763   5.492  28.111  0.00  0.00     0.020 C 
BRANCH  34  35
HETATM   35  C   UNL     1      -1.062   4.403  27.079  0.00  0.00    -0.003 C 
HETATM   36  C   UNL     1       0.094   3.424  26.962  0.00  0.00     0.005 C 
ENDBRANCH  34  35
ENDBRANCH  33  34
ENDBRANCH  30  33
ENDBRANCH   1  29
TORSDOF 8
ENDMDL
MODEL 8
REMARK VINA RESULT:    -7.093      2.210      2.969
REMARK INTER + INTRA:         -11.771
REMARK INTER:                  -9.711
REMARK INTRA:                  -2.060
REMARK UNBOUND:                -1.568
REMARK  8 active torsions:
REMARK  status: ('A' for Active; 'I' for Inactive)
REMARK    1  A    between atoms: C_2  and  C_3 
REMARK    2  A    between atoms: C_3  and  C_4 
REMARK    3  A    between atoms: C_4  and  N_5 
REMARK       I    between atoms: N_5  and  C_7 
REMARK    4  A    between atoms: C_7  and  C_9 
REMARK    5  A    between atoms: C_16  and  C_20 
REMARK    6  A    between atoms: C_17  and  O_19 
REMARK       I    between atoms: C_20  and  N_22 
REMARK    7  A    between atoms: N_22  and  C_24 
REMARK    8  A    between atoms: C_27  and  N_30 
ROOT
HETATM    1  C   UNL     1       0.780   3.899  18.878  0.00  0.00     0.157 A 
HETATM    2  N   UNL     1      -0.466   4.176  18.436  0.00  0.00    -0.168 NA
HETATM    3  N   UNL     1      -0.437   5.485  18.144  0.00  0.00    -0.277 N 
HETATM    4  H   UNL     1      -1.289   5.919  17.805  0.00  0.00     0.189 HD
HETATM    5  C   UNL     1       1.595   5.070  18.822  0.00  0.00     0.029 A 
HETATM    6  C   UNL     1       0.771   6.084  18.355  0.00  0.00     0.065 A 
HETATM    7  C   UNL     1       2.932   5.378  19.132  0.00  0.00     0.036 C 
HETATM    8  C   UNL     1       3.439   6.660  18.873  0.00  0.00     0.066 C 
HETATM    9  C   UNL     1       2.543   7.673  18.498  0.00  0.00     0.083 C 
HETATM   10  C   UNL     1       1.199   7.405  18.207  0.00  0.00     0.069 C 
ENDROOT
BRANCH   8  11
HETATM   11  C   UNL     1       4.907   6.956  19.037  0.00  0.00     0.260 C 
HETATM   12  O   UNL     1       5.596   6.836  18.021  0.00  0.00    -0.267 OA
HETATM   13  N   UNL     1       5.420   7.355  20.286  0.00  0.00    -0.318 N 
HETATM   14  C   UNL     1       6.805   7.787  20.401  0.00  0.00     0.159 C 
BRANCH  13  15
HETATM   15  C   UNL     1       4.720   7.213  21.508  0.00  0.00     0.037 A 
HETATM   16  C   UNL     1       4.051   8.302  22.059  0.00  0.00     0.032 A 
HETATM   17  C   UNL     1       3.549   8.229  23.362  0.00  0.00     0.031 A 
HETATM   18  C   UNL     1       3.723   7.087  24.159  0.00  0.00     0.030 A 
HETATM   19  C   UNL     1       4.331   5.979  23.545  0.00  0.00     0.031 A 
HETATM   20  C   UNL     1       4.798   6.021  22.225  0.00  0.00     0.032 A 
BRANCH  18  21
HETATM   21  N   UNL     1       3.294   7.031  25.466  0.00  0.00    -0.377 N 
HETATM   22  C   UNL     1       3.914   6.172  26.482  0.00  0.00     0.149 C 
HETATM   23  C   UNL     1       4.043   6.997  27.771  0.00  0.00     0.187 C 
HETATM   24  O   UNL     1       2.761   7.464  28.228  0.00  0.00    -0.388 OA
HETATM   25  C   UNL     1       2.139   8.292  27.222  0.00  0.00     0.187 C 
HETATM   26  C   UNL     1       1.978   7.546  25.886  0.00  0.00     0.149 C 
ENDBRANCH  18  21
ENDBRANCH  13  15
ENDBRANCH   8  11
BRANCH   9  27
HETATM   27  O   UNL     1       2.908   8.993  18.436  0.00  0.00    -0.360 OA
HETATM   28  H   UNL     1       2.349   9.413  17.745  0.00  0.00     0.217 HD
ENDBRANCH   9  27
BRANCH   1  29
HETATM   29  C   UNL     1       1.233   2.555  19.319  0.00  0.00     0.274 C 
HETATM   30  N   UNL     1       2.103   1.814  18.498  0.00  0.00    -0.351 N 
HETATM   31  C   UNL     1       2.217   2.091  17.075  0.00  0.00     0.152 C 
HETATM   32  O   UNL     1       0.831   2.079  20.383  0.00  0.00    -0.266 OA
BRANCH  30  33
HETATM   33  C   UNL     1       2.593   0.525  18.989  0.00  0.00     0.125 C 
BRANCH  33  34
HETATM   34  C   UNL     1       4.093   0.498  19.291  0.00  0.00     0.020 C 
BRANCH  34  35
HETATM   35  C   UNL     1       4.618   1.836  19.812  0.00  0.00    -0.003 C 
HETATM   36  C   UNL     1       4.367   1.984  21.304  0.00  0.00     0.005 C 
ENDBRANCH  34  35
ENDBRANCH  33  34
ENDBRANCH  30  33
ENDBRANCH   1  29
TORSDOF 8
ENDMDL
MODEL 9
REMARK VINA RESULT:    -6.980      2.073      7.984
REMARK INTER + INTRA:         -11.609
REMARK INTER:                 -10.041
REMARK INTRA:                  -1.568
REMARK UNBOUND:                -1.568
REMARK  8 active torsions:
REMARK  status: ('A' for Active; 'I' for Inactive)
REMARK    1  A    between atoms: C_2  and  C_3 
REMARK    2  A    between atoms: C_3  and  C_4 
REMARK    3  A    between atoms: C_4  and  N_5 
REMARK       I    between atoms: N_5  and  C_7 
REMARK    4  A    between atoms: C_7  and  C_9 
REMARK    5  A    between atoms: C_16  and  C_20 
REMARK    6  A    between atoms: C_17  and  O_19 
REMARK       I    between atoms: C_20  and  N_22 
REMARK    7  A    between atoms: N_22  and  C_24 
REMARK    8  A    between atoms: C_27  and  N_30 
ROOT
HETATM    1  C   UNL     1       4.049   6.588  23.483  0.00  0.00     0.157 A 
HETATM    2  N   UNL     1       5.232   6.200  24.007  0.00  0.00    -0.168 NA
HETATM    3  N   UNL     1       6.069   6.166  22.959  0.00  0.00    -0.277 N 
HETATM    4  H   UNL     1       7.028   5.877  23.122  0.00  0.00     0.189 HD
HETATM    5  C   UNL     1       4.184   6.826  22.081  0.00  0.00     0.029 A 
HETATM    6  C   UNL     1       5.504   6.529  21.772  0.00  0.00     0.065 A 
HETATM    7  C   UNL     1       3.327   7.243  21.048  0.00  0.00     0.036 C 
HETATM    8  C   UNL     1       3.830   7.452  19.755  0.00  0.00     0.066 C 
HETATM    9  C   UNL     1       5.142   7.041  19.471  0.00  0.00     0.083 C 
HETATM   10  C   UNL     1       6.014   6.596  20.474  0.00  0.00     0.069 C 
ENDROOT
BRANCH   8  11
HETATM   11  C   UNL     1       2.967   8.061  18.680  0.00  0.00     0.260 C 
HETATM   12  O   UNL     1       3.035   9.288  18.569  0.00  0.00    -0.267 OA
HETATM   13  N   UNL     1       2.159   7.247  17.866  0.00  0.00    -0.318 N 
HETATM   14  C   UNL     1       1.449   7.823  16.734  0.00  0.00     0.159 C 
BRANCH  13  15
HETATM   15  C   UNL     1       1.843   5.899  18.165  0.00  0.00     0.037 A 
HETATM   16  C   UNL     1       2.584   4.867  17.597  0.00  0.00     0.032 A 
HETATM   17  C   UNL     1       2.143   3.545  17.710  0.00  0.00     0.031 A 
HETATM   18  C   UNL     1       0.944   3.218  18.362  0.00  0.00     0.030 A 
HETATM   19  C   UNL     1       0.263   4.273  18.991  0.00  0.00     0.031 A 
HETATM   20  C   UNL     1       0.716   5.597  18.927  0.00  0.00     0.032 A 
BRANCH  18  21
HETATM   21  N   UNL     1       0.467   1.927  18.418  0.00  0.00    -0.377 N 
HETATM   22  C   UNL     1      -0.037   1.307  19.649  0.00  0.00     0.149 C 
HETATM   23  C   UNL     1      -1.317   0.537  19.291  0.00  0.00     0.187 C 
HETATM   24  O   UNL     1      -1.065  -0.468  18.292  0.00  0.00    -0.388 OA
HETATM   25  C   UNL     1      -0.549   0.137  17.087  0.00  0.00     0.187 C 
HETATM   26  C   UNL     1       0.734   0.941  17.355  0.00  0.00     0.149 C 
ENDBRANCH  18  21
ENDBRANCH  13  15
ENDBRANCH   8  11
BRANCH   9  27
HETATM   27  O   UNL     1       5.643   7.005  18.195  0.00  0.00    -0.360 OA
HETATM   28  H   UNL     1       6.566   6.674  18.259  0.00  0.00     0.217 HD
ENDBRANCH   9  27
BRANCH   1  29
HETATM   29  C   UNL     1       2.804   6.773  24.272  0.00  0.00     0.274 C 
HETATM   30  N   UNL     1       2.257   8.062  24.409  0.00  0.00    -0.351 N 
HETATM   31  C   UNL     1       3.069   9.252  24.209  0.00  0.00     0.152 C 
HETATM   32  O   UNL     1       2.266   5.811  24.825  0.00  0.00    -0.266 OA
BRANCH  30  33
HETATM   33  C   UNL     1       0.991   8.209  25.129  0.00  0.00     0.125 C 
BRANCH  33  34
HETATM   34  C   UNL     1       0.522   9.657  25.285  0.00  0.00     0.020 C 
BRANCH  34  35
HETATM   35  C   UNL     1      -0.842   9.912  24.643  0.00  0.00    -0.003 C 
HETATM   36  C   UNL     1      -0.960  11.344  24.148  0.00  0.00     0.005 C 
ENDBRANCH  34  35
ENDBRANCH  33  34
ENDBRANCH  30  33
ENDBRANCH   1  29
TORSDOF 8
ENDMDL
