MODEL 1
REMARK VINA RESULT:    -6.815      0.000      0.000
REMARK INTER + INTRA:          -9.598
REMARK INTER:                  -8.113
REMARK INTRA:                  -1.485
REMARK UNBOUND:                -1.189
REMARK  5 active torsions:
REMARK  status: ('A' for Active; 'I' for Inactive)
REMARK    1  A    between atoms: C_2  and  C_3 
REMARK    2  A    between atoms: C_8  and  N_9 
REMARK    3  A    between atoms: C_15  and  C_16 
REMARK    4  A    between atoms: C_19  and  O_20 
REMARK    5  A    between atoms: C_22  and  O_23 
ROOT
HETATM    1  N   UNL     1       7.575  12.834  23.999  0.00  0.00    -0.244 N 
HETATM    2  C   UNL     1       8.565  12.776  24.966  0.00  0.00     0.349 A 
HETATM    3  O   UNL     1       8.838  13.570  25.855  0.00  0.00    -0.245 OA
HETATM    4  N   UNL     1       9.223  11.578  24.749  0.00  0.00    -0.226 N 
HETATM    5  H   UNL     1      10.002  11.219  25.279  0.00  0.00     0.194 HD
HETATM    6  N   UNL     1       8.724  10.945  23.658  0.00  0.00    -0.151 NA
HETATM    7  C   UNL     1       7.753  11.710  23.222  0.00  0.00     0.171 A 
ENDROOT
BRANCH   7   8
HETATM    8  C   UNL     1       7.068  11.389  21.929  0.00  0.00     0.045 A 
HETATM    9  C   UNL     1       5.686  11.157  21.860  0.00  0.00     0.021 A 
HETATM   10  C   UNL     1       5.027  11.070  20.623  0.00  0.00     0.037 A 
HETATM   11  C   UNL     1       5.744  11.241  19.445  0.00  0.00     0.068 A 
HETATM   12  C   UNL     1       7.112  11.458  19.477  0.00  0.00     0.074 A 
HETATM   13  C   UNL     1       7.769  11.517  20.710  0.00  0.00     0.082 A 
BRANCH  11  14
HETATM   14  O   UNL     1       5.139  11.216  18.223  0.00  0.00    -0.361 OA
HETATM   15  H   UNL     1       4.610  10.405  18.146  0.00  0.00     0.217 HD
ENDBRANCH  11  14
BRANCH  13  16
HETATM   16  O   UNL     1       9.128  11.692  20.690  0.00  0.00    -0.360 OA
HETATM   17  H   UNL     1       9.476  11.582  21.589  0.00  0.00     0.217 HD
ENDBRANCH  13  16
ENDBRANCH   7   8
BRANCH   1  18
HETATM   18  C   UNL     1       6.669  13.906  23.928  0.00  0.00     0.052 A 
HETATM   19  C   UNL     1       6.897  15.061  23.150  0.00  0.00    -0.031 A 
HETATM   20  C   UNL     1       5.964  16.117  23.217  0.00  0.00     0.009 A 
HETATM   21  C   UNL     1       4.800  16.011  23.980  0.00  0.00     0.001 A 
HETATM   22  C   UNL     1       4.525  14.830  24.657  0.00  0.00     0.002 A 
HETATM   23  C   UNL     1       5.449  13.786  24.625  0.00  0.00     0.031 A 
BRANCH  19  24
HETATM   24  C   UNL     1       8.012  15.160  22.132  0.00  0.00     0.036 C 
HETATM   25  C   UNL     1       9.307  15.710  22.727  0.00  0.00     0.010 C 
ENDBRANCH  19  24
ENDBRANCH   1  18
TORSDOF 5
ENDMDL
MODEL 2
REMARK VINA RESULT:    -6.799      2.173      2.833
REMARK INTER + INTRA:          -9.578
REMARK INTER:                  -8.174
REMARK INTRA:                  -1.404
REMARK UNBOUND:                -1.189
REMARK  5 active torsions:
REMARK  status: ('A' for Active; 'I' for Inactive)
REMARK    1  A    between atoms: C_2  and  C_3 
REMARK    2  A    between atoms: C_8  and  N_9 
REMARK    3  A    between atoms: C_15  and  C_16 
REMARK    4  A    between atoms: C_19  and  O_20 
REMARK    5  A    between atoms: C_22  and  O_23 
ROOT
HETATM    1  N   UNL     1       7.965  14.260  22.168  0.00  0.00    -0.244 N 
HETATM    2  C   UNL     1       8.984  15.007  21.601  0.00  0.00     0.349 A 
HETATM    3  O   UNL     1       9.357  16.143  21.857  0.00  0.00    -0.245 OA
HETATM    4  N   UNL     1       9.558  14.185  20.646  0.00  0.00    -0.226 N 
HETATM    5  H   UNL     1      10.333  14.417  20.046  0.00  0.00     0.194 HD
HETATM    6  N   UNL     1       8.890  13.008  20.561  0.00  0.00    -0.151 NA
HETATM    7  C   UNL     1       7.943  13.075  21.466  0.00  0.00     0.171 A 
ENDROOT
BRANCH   7   8
HETATM    8  C   UNL     1       6.909  11.994  21.551  0.00  0.00     0.045 A 
HETATM    9  C   UNL     1       5.563  12.230  21.231  0.00  0.00     0.021 A 
HETATM   10  C   UNL     1       4.652  11.169  21.109  0.00  0.00     0.037 A 
HETATM   11  C   UNL     1       5.088   9.860  21.279  0.00  0.00     0.068 A 
HETATM   12  C   UNL     1       6.407   9.593  21.610  0.00  0.00     0.074 A 
HETATM   13  C   UNL     1       7.305  10.655  21.757  0.00  0.00     0.082 A 
BRANCH  11  14
HETATM   14  O   UNL     1       4.251   8.795  21.120  0.00  0.00    -0.361 OA
HETATM   15  H   UNL     1       3.685   8.948  20.345  0.00  0.00     0.217 HD
ENDBRANCH  11  14
BRANCH  13  16
HETATM   16  O   UNL     1       8.589  10.344  22.124  0.00  0.00    -0.360 OA
HETATM   17  H   UNL     1       9.208  10.827  21.553  0.00  0.00     0.217 HD
ENDBRANCH  13  16
ENDBRANCH   7   8
BRANCH   1  18
HETATM   18  C   UNL     1       7.171  14.761  23.214  0.00  0.00     0.052 A 
HETATM   19  C   UNL     1       7.438  14.508  24.576  0.00  0.00    -0.031 A 
HETATM   20  C   UNL     1       6.529  14.985  25.543  0.00  0.00     0.009 A 
HETATM   21  C   UNL     1       5.420  15.753  25.182  0.00  0.00     0.001 A 
HETATM   22  C   UNL     1       5.221  16.092  23.851  0.00  0.00     0.002 A 
HETATM   23  C   UNL     1       6.094  15.606  22.878  0.00  0.00     0.031 A 
BRANCH  19  24
HETATM   24  C   UNL     1       8.727  13.881  25.060  0.00  0.00     0.036 C 
HETATM   25  C   UNL     1       8.629  12.364  25.205  0.00  0.00     0.010 C 
ENDBRANCH  19  24
ENDBRANCH   1  18
TORSDOF 5
ENDMDL
MODEL 3
REMARK VINA RESULT:    -6.673      2.641      4.260
REMARK INTER + INTRA:          -9.423
REMARK INTER:                  -8.298
REMARK INTRA:                  -1.125
REMARK UNBOUND:                -1.189
REMARK  5 active torsions:
REMARK  status: ('A' for Active; 'I' for Inactive)
REMARK    1  A    between atoms: C_2  and  C_3 
REMARK    2  A    between atoms: C_8  and  N_9 
REMARK    3  A    between atoms: C_15  and  C_16 
REMARK    4  A    between atoms: C_19  and  O_20 
REMARK    5  A    between atoms: C_22  and  O_23 
ROOT
HETATM    1  N   UNL     1       7.591  12.671  22.016  0.00  0.00    -0.244 N 
HETATM    2  C   UNL     1       8.314  12.138  20.963  0.00  0.00     0.349 A 
HETATM    3  O   UNL     1       9.524  12.065  20.802  0.00  0.00    -0.245 OA
HETATM    4  N   UNL     1       7.371  11.653  20.073  0.00  0.00    -0.226 N 
HETATM    5  H   UNL     1       7.556  11.198  19.194  0.00  0.00     0.194 HD
HETATM    6  N   UNL     1       6.115  11.931  20.506  0.00  0.00    -0.151 NA
HETATM    7  C   UNL     1       6.267  12.542  21.656  0.00  0.00     0.171 A 
ENDROOT
BRANCH   7   8
HETATM    8  C   UNL     1       5.080  13.131  22.355  0.00  0.00     0.045 A 
HETATM    9  C   UNL     1       5.105  14.426  22.894  0.00  0.00     0.021 A 
HETATM   10  C   UNL     1       3.929  15.042  23.353  0.00  0.00     0.037 A 
HETATM   11  C   UNL     1       2.715  14.375  23.251  0.00  0.00     0.068 A 
HETATM   12  C   UNL     1       2.657  13.089  22.737  0.00  0.00     0.074 A 
HETATM   13  C   UNL     1       3.834  12.469  22.306  0.00  0.00     0.082 A 
BRANCH  11  14
HETATM   14  O   UNL     1       1.540  14.952  23.636  0.00  0.00    -0.361 OA
HETATM   15  H   UNL     1       1.733  15.751  24.152  0.00  0.00     0.217 HD
ENDBRANCH  11  14
BRANCH  13  16
HETATM   16  O   UNL     1       3.733  11.183  21.843  0.00  0.00    -0.360 OA
HETATM   17  H   UNL     1       4.093  10.576  22.510  0.00  0.00     0.217 HD
ENDBRANCH  13  16
ENDBRANCH   7   8
BRANCH   1  18
HETATM   18  C   UNL     1       8.221  13.231  23.141  0.00  0.00     0.052 A 
HETATM   19  C   UNL     1       8.681  14.563  23.186  0.00  0.00    -0.031 A 
HETATM   20  C   UNL     1       9.379  14.999  24.333  0.00  0.00     0.009 A 
HETATM   21  C   UNL     1       9.557  14.164  25.437  0.00  0.00     0.001 A 
HETATM   22  C   UNL     1       9.006  12.889  25.432  0.00  0.00     0.002 A 
HETATM   23  C   UNL     1       8.338  12.431  24.296  0.00  0.00     0.031 A 
BRANCH  19  24
HETATM   24  C   UNL     1       8.335  15.590  22.131  0.00  0.00     0.036 C 
HETATM   25  C   UNL     1       9.552  16.378  21.651  0.00  0.00     0.010 C 
ENDBRANCH  19  24
ENDBRANCH   1  18
TORSDOF 5
ENDMDL
MODEL 4
REMARK VINA RESULT:    -6.521      3.616      4.871
REMARK INTER + INTRA:          -9.235
REMARK INTER:                  -8.104
REMARK INTRA:                  -1.131
REMARK UNBOUND:                -1.189
REMARK  5 active torsions:
REMARK  status: ('A' for Active; 'I' for Inactive)
REMARK    1  A    between atoms: C_2  and  C_3 
REMARK    2  A    between atoms: C_8  and  N_9 
REMARK    3  A    between atoms: C_15  and  C_16 
REMARK    4  A    between atoms: C_19  and  O_20 
REMARK    5  A    between atoms: C_22  and  O_23 
ROOT
HETATM    1  N   UNL     1       5.477  12.710  21.898  0.00  0.00    -0.244 N 
HETATM    2  C   UNL     1       6.356  12.253  20.931  0.00  0.00     0.349 A 
HETATM    3  O   UNL     1       7.553  12.464  20.797  0.00  0.00    -0.245 OA
HETATM    4  N   UNL     1       5.600  11.448  20.095  0.00  0.00    -0.226 N 
HETATM    5  H   UNL     1       5.931  10.952  19.283  0.00  0.00     0.194 HD
HETATM    6  N   UNL     1       4.297  11.454  20.471  0.00  0.00    -0.151 NA
HETATM    7  C   UNL     1       4.243  12.216  21.538  0.00  0.00     0.171 A 
ENDROOT
BRANCH   7   8
HETATM    8  C   UNL     1       2.917  12.570  22.140  0.00  0.00     0.045 A 
HETATM    9  C   UNL     1       1.979  13.355  21.455  0.00  0.00     0.021 A 
HETATM   10  C   UNL     1       0.667  13.500  21.936  0.00  0.00     0.037 A 
HETATM   11  C   UNL     1       0.279  12.838  23.094  0.00  0.00     0.068 A 
HETATM   12  C   UNL     1       1.186  12.066  23.803  0.00  0.00     0.074 A 
HETATM   13  C   UNL     1       2.498  11.946  23.335  0.00  0.00     0.082 A 
BRANCH  11  14
HETATM   14  O   UNL     1      -0.997  12.907  23.572  0.00  0.00    -0.361 OA
HETATM   15  H   UNL     1      -1.022  12.534  24.468  0.00  0.00     0.217 HD
ENDBRANCH  11  14
BRANCH  13  16
HETATM   16  O   UNL     1       3.369  11.205  24.091  0.00  0.00    -0.360 OA
HETATM   17  H   UNL     1       3.764  10.515  23.535  0.00  0.00     0.217 HD
ENDBRANCH  13  16
ENDBRANCH   7   8
BRANCH   1  18
HETATM   18  C   UNL     1       5.900  13.538  22.952  0.00  0.00     0.052 A 
HETATM   19  C   UNL     1       6.467  13.042  24.145  0.00  0.00    -0.031 A 
HETATM   20  C   UNL     1       6.777  13.954  25.176  0.00  0.00     0.009 A 
HETATM   21  C   UNL     1       6.596  15.328  25.010  0.00  0.00     0.001 A 
HETATM   22  C   UNL     1       6.141  15.821  23.795  0.00  0.00     0.002 A 
HETATM   23  C   UNL     1       5.803  14.933  22.774  0.00  0.00     0.031 A 
BRANCH  19  24
HETATM   24  C   UNL     1       6.899  11.602  24.315  0.00  0.00     0.036 C 
HETATM   25  C   UNL     1       8.416  11.431  24.268  0.00  0.00     0.010 C 
ENDBRANCH  19  24
ENDBRANCH   1  18
TORSDOF 5
ENDMDL
MODEL 5
REMARK VINA RESULT:    -6.509      2.986      5.446
REMARK INTER + INTRA:          -9.220
REMARK INTER:                  -7.764
REMARK INTRA:                  -1.456
REMARK UNBOUND:                -1.189
REMARK  5 active torsions:
REMARK  status: ('A' for Active; 'I' for Inactive)
REMARK    1  A    between atoms: C_2  and  C_3 
REMARK    2  A    between atoms: C_8  and  N_9 
REMARK    3  A    between atoms: C_15  and  C_16 
REMARK    4  A    between atoms: C_19  and  O_20 
REMARK    5  A    between atoms: C_22  and  O_23 
ROOT
HETATM    1  N   UNL     1       6.061  11.586  20.836  0.00  0.00    -0.244 N 
HETATM    2  C   UNL     1       6.044  11.286  19.485  0.00  0.00     0.349 A 
HETATM    3  O   UNL     1       6.948  10.897  18.758  0.00  0.00    -0.245 OA
HETATM    4  N   UNL     1       4.739  11.498  19.074  0.00  0.00    -0.226 N 
HETATM    5  H   UNL     1       4.378  11.371  18.143  0.00  0.00     0.194 HD
HETATM    6  N   UNL     1       3.986  11.977  20.096  0.00  0.00    -0.151 NA
HETATM    7  C   UNL     1       4.790  12.031  21.130  0.00  0.00     0.171 A 
ENDROOT
BRANCH   7   8
HETATM    8  C   UNL     1       4.327  12.660  22.409  0.00  0.00     0.045 A 
HETATM    9  C   UNL     1       4.734  13.947  22.791  0.00  0.00     0.021 A 
HETATM   10  C   UNL     1       4.130  14.605  23.874  0.00  0.00     0.037 A 
HETATM   11  C   UNL     1       3.095  13.988  24.568  0.00  0.00     0.068 A 
HETATM   12  C   UNL     1       2.679  12.711  24.226  0.00  0.00     0.074 A 
HETATM   13  C   UNL     1       3.301  12.049  23.163  0.00  0.00     0.082 A 
BRANCH  11  14
HETATM   14  O   UNL     1       2.444  14.608  25.593  0.00  0.00    -0.361 OA
HETATM   15  H   UNL     1       2.186  15.501  25.313  0.00  0.00     0.217 HD
ENDBRANCH  11  14
BRANCH  13  16
HETATM   16  O   UNL     1       2.884  10.773  22.888  0.00  0.00    -0.360 OA
HETATM   17  H   UNL     1       1.946  10.792  22.638  0.00  0.00     0.217 HD
ENDBRANCH  13  16
ENDBRANCH   7   8
BRANCH   1  18
HETATM   18  C   UNL     1       7.225  11.452  21.612  0.00  0.00     0.052 A 
HETATM   19  C   UNL     1       8.224  12.446  21.686  0.00  0.00    -0.031 A 
HETATM   20  C   UNL     1       9.395  12.174  22.425  0.00  0.00     0.009 A 
HETATM   21  C   UNL     1       9.548  10.980  23.132  0.00  0.00     0.001 A 
HETATM   22  C   UNL     1       8.516  10.051  23.146  0.00  0.00     0.002 A 
HETATM   23  C   UNL     1       7.363  10.290  22.399  0.00  0.00     0.031 A 
BRANCH  19  24
HETATM   24  C   UNL     1       8.037  13.843  21.137  0.00  0.00     0.036 C 
HETATM   25  C   UNL     1       8.173  14.922  22.210  0.00  0.00     0.010 C 
ENDBRANCH  19  24
ENDBRANCH   1  18
TORSDOF 5
ENDMDL
MODEL 6
REMARK VINA RESULT:    -6.418      0.735      2.141
REMARK INTER + INTRA:          -9.108
REMARK INTER:                  -7.735
REMARK INTRA:                  -1.373
REMARK UNBOUND:                -1.189
REMARK  5 active torsions:
REMARK  status: ('A' for Active; 'I' for Inactive)
REMARK    1  A    between atoms: C_2  and  C_3 
REMARK    2  A    between atoms: C_8  and  N_9 
REMARK    3  A    between atoms: C_15  and  C_16 
REMARK    4  A    between atoms: C_19  and  O_20 
REMARK    5  A    between atoms: C_22  and  O_23 
ROOT
HETATM    1  N   UNL     1       7.663  12.955  23.871  0.00  0.00    -0.244 N 
HETATM    2  C   UNL     1       8.737  13.011  24.743  0.00  0.00     0.349 A 
HETATM    3  O   UNL     1       8.971  13.799  25.648  0.00  0.00    -0.245 OA
HETATM    4  N   UNL     1       9.546  11.940  24.403  0.00  0.00    -0.226 N 
HETATM    5  H   UNL     1      10.416  11.685  24.842  0.00  0.00     0.194 HD
HETATM    6  N   UNL     1       9.047  11.284  23.325  0.00  0.00    -0.151 NA
HETATM    7  C   UNL     1       7.935  11.907  23.019  0.00  0.00     0.171 A 
ENDROOT
BRANCH   7   8
HETATM    8  C   UNL     1       7.187  11.538  21.774  0.00  0.00     0.045 A 
HETATM    9  C   UNL     1       5.810  11.269  21.790  0.00  0.00     0.021 A 
HETATM   10  C   UNL     1       5.085  11.136  20.594  0.00  0.00     0.037 A 
HETATM   11  C   UNL     1       5.730  11.298  19.374  0.00  0.00     0.068 A 
HETATM   12  C   UNL     1       7.091  11.550  19.323  0.00  0.00     0.074 A 
HETATM   13  C   UNL     1       7.815  11.655  20.515  0.00  0.00     0.082 A 
BRANCH  11  14
HETATM   14  O   UNL     1       5.058  11.229  18.189  0.00  0.00    -0.361 OA
HETATM   15  H   UNL     1       5.323  10.421  17.719  0.00  0.00     0.217 HD
ENDBRANCH  11  14
BRANCH  13  16
HETATM   16  O   UNL     1       9.165  11.864  20.414  0.00  0.00    -0.360 OA
HETATM   17  H   UNL     1       9.421  12.583  21.014  0.00  0.00     0.217 HD
ENDBRANCH  13  16
ENDBRANCH   7   8
BRANCH   1  18
HETATM   18  C   UNL     1       6.604  13.876  23.939  0.00  0.00     0.052 A 
HETATM   19  C   UNL     1       5.391  13.611  24.610  0.00  0.00    -0.031 A 
HETATM   20  C   UNL     1       4.358  14.570  24.544  0.00  0.00     0.009 A 
HETATM   21  C   UNL     1       4.540  15.790  23.890  0.00  0.00     0.001 A 
HETATM   22  C   UNL     1       5.772  16.092  23.325  0.00  0.00     0.002 A 
HETATM   23  C   UNL     1       6.795  15.145  23.356  0.00  0.00     0.031 A 
BRANCH  19  24
HETATM   24  C   UNL     1       5.198  12.420  25.522  0.00  0.00     0.036 C 
HETATM   25  C   UNL     1       4.286  11.354  24.917  0.00  0.00     0.010 C 
ENDBRANCH  19  24
ENDBRANCH   1  18
TORSDOF 5
ENDMDL
MODEL 7
REMARK VINA RESULT:    -6.365      2.500      4.276
REMARK INTER + INTRA:          -9.043
REMARK INTER:                  -7.598
REMARK INTRA:                  -1.445
REMARK UNBOUND:                -1.189
REMARK  5 active torsions:
REMARK  status: ('A' for Active; 'I' for Inactive)
REMARK    1  A    between atoms: C_2  and  C_3 
REMARK    2  A    between atoms: C_8  and  N_9 
REMARK    3  A    between atoms: C_15  and  C_16 
REMARK    4  A    between atoms: C_19  and  O_20 
REMARK    5  A    between atoms: C_22  and  O_23 
ROOT
HETATM    1  N   UNL     1       6.877  13.454  24.245  0.00  0.00    -0.244 N 
HETATM    2  C   UNL     1       7.554  12.909  25.323  0.00  0.00     0.349 A 
HETATM    3  O   UNL     1       8.756  12.804  25.520  0.00  0.00    -0.245 OA
HETATM    4  N   UNL     1       6.572  12.493  26.206  0.00  0.00    -0.226 N 
HETATM    5  H   UNL     1       6.719  12.051  27.099  0.00  0.00     0.194 HD
HETATM    6  N   UNL     1       5.337  12.696  25.681  0.00  0.00    -0.151 NA
HETATM    7  C   UNL     1       5.539  13.259  24.514  0.00  0.00     0.171 A 
ENDROOT
BRANCH   7   8
HETATM    8  C   UNL     1       4.388  13.493  23.584  0.00  0.00     0.045 A 
HETATM    9  C   UNL     1       4.138  12.651  22.490  0.00  0.00     0.021 A 
HETATM   10  C   UNL     1       2.944  12.752  21.758  0.00  0.00     0.037 A 
HETATM   11  C   UNL     1       1.979  13.680  22.133  0.00  0.00     0.068 A 
HETATM   12  C   UNL     1       2.201  14.536  23.200  0.00  0.00     0.074 A 
HETATM   13  C   UNL     1       3.403  14.451  23.910  0.00  0.00     0.082 A 
BRANCH  11  14
HETATM   14  O   UNL     1       0.784  13.780  21.485  0.00  0.00    -0.361 OA
HETATM   15  H   UNL     1       0.827  14.512  20.848  0.00  0.00     0.217 HD
ENDBRANCH  11  14
BRANCH  13  16
HETATM   16  O   UNL     1       3.594  15.344  24.931  0.00  0.00    -0.360 OA
HETATM   17  H   UNL     1       4.094  14.912  25.642  0.00  0.00     0.217 HD
ENDBRANCH  13  16
ENDBRANCH   7   8
BRANCH   1  18
HETATM   18  C   UNL     1       7.555  14.019  23.152  0.00  0.00     0.052 A 
HETATM   19  C   UNL     1       8.001  13.266  22.045  0.00  0.00    -0.031 A 
HETATM   20  C   UNL     1       8.749  13.918  21.041  0.00  0.00     0.009 A 
HETATM   21  C   UNL     1       8.992  15.292  21.092  0.00  0.00     0.001 A 
HETATM   22  C   UNL     1       8.457  16.048  22.127  0.00  0.00     0.002 A 
HETATM   23  C   UNL     1       7.739  15.417  23.142  0.00  0.00     0.031 A 
BRANCH  19  24
HETATM   24  C   UNL     1       7.590  11.830  21.806  0.00  0.00     0.036 C 
HETATM   25  C   UNL     1       7.013  11.605  20.410  0.00  0.00     0.010 C 
ENDBRANCH  19  24
ENDBRANCH   1  18
TORSDOF 5
ENDMDL
MODEL 8
REMARK VINA RESULT:    -6.282      2.195      3.411
REMARK INTER + INTRA:          -8.940
REMARK INTER:                  -7.751
REMARK INTRA:                  -1.189
REMARK UNBOUND:                -1.189
REMARK  5 active torsions:
REMARK  status: ('A' for Active; 'I' for Inactive)
REMARK    1  A    between atoms: C_2  and  C_3 
REMARK    2  A    between atoms: C_8  and  N_9 
REMARK    3  A    between atoms: C_15  and  C_16 
REMARK    4  A    between atoms: C_19  and  O_20 
REMARK    5  A    between atoms: C_22  and  O_23 
ROOT
HETATM    1  N   UNL     1       5.803  12.019  23.456  0.00  0.00    -0.244 N 
HETATM    2  C   UNL     1       5.405  12.011  24.782  0.00  0.00     0.349 A 
HETATM    3  O   UNL     1       5.880  12.596  25.745  0.00  0.00    -0.245 OA
HETATM    4  N   UNL     1       4.294  11.187  24.830  0.00  0.00    -0.226 N 
HETATM    5  H   UNL     1       3.752  10.961  25.649  0.00  0.00     0.194 HD
HETATM    6  N   UNL     1       4.046  10.644  23.612  0.00  0.00    -0.151 NA
HETATM    7  C   UNL     1       4.957  11.143  22.812  0.00  0.00     0.171 A 
ENDROOT
BRANCH   7   8
HETATM    8  C   UNL     1       5.076  10.642  21.405  0.00  0.00     0.045 A 
HETATM    9  C   UNL     1       5.427  11.490  20.344  0.00  0.00     0.021 A 
HETATM   10  C   UNL     1       5.742  10.972  19.078  0.00  0.00     0.037 A 
HETATM   11  C   UNL     1       5.733   9.598  18.871  0.00  0.00     0.068 A 
HETATM   12  C   UNL     1       5.376   8.733  19.893  0.00  0.00     0.074 A 
HETATM   13  C   UNL     1       5.037   9.254  21.146  0.00  0.00     0.082 A 
BRANCH  11  14
HETATM   14  O   UNL     1       6.082   9.046  17.674  0.00  0.00    -0.361 OA
HETATM   15  H   UNL     1       5.370   9.202  17.032  0.00  0.00     0.217 HD
ENDBRANCH  11  14
BRANCH  13  16
HETATM   16  O   UNL     1       4.652   8.364  22.114  0.00  0.00    -0.360 OA
HETATM   17  H   UNL     1       4.479   7.502  21.701  0.00  0.00     0.217 HD
ENDBRANCH  13  16
ENDBRANCH   7   8
BRANCH   1  18
HETATM   18  C   UNL     1       6.894  12.787  23.013  0.00  0.00     0.052 A 
HETATM   19  C   UNL     1       6.786  14.144  22.646  0.00  0.00    -0.031 A 
HETATM   20  C   UNL     1       7.926  14.799  22.131  0.00  0.00     0.009 A 
HETATM   21  C   UNL     1       9.160  14.150  22.046  0.00  0.00     0.001 A 
HETATM   22  C   UNL     1       9.287  12.848  22.511  0.00  0.00     0.002 A 
HETATM   23  C   UNL     1       8.165  12.177  22.996  0.00  0.00     0.031 A 
BRANCH  19  24
HETATM   24  C   UNL     1       5.551  14.975  22.916  0.00  0.00     0.036 C 
HETATM   25  C   UNL     1       5.754  15.985  24.044  0.00  0.00     0.010 C 
ENDBRANCH  19  24
ENDBRANCH   1  18
TORSDOF 5
ENDMDL
MODEL 9
REMARK VINA RESULT:    -5.666      1.649      2.782
REMARK INTER + INTRA:          -8.181
REMARK INTER:                  -6.784
REMARK INTRA:                  -1.397
REMARK UNBOUND:                -1.189
REMARK  5 active torsions:
REMARK  status: ('A' for Active; 'I' for Inactive)
REMARK    1  A    between atoms: C_2  and  C_3 
REMARK    2  A    between atoms: C_8  and  N_9 
REMARK    3  A    between atoms: C_15  and  C_16 
REMARK    4  A    between atoms: C_19  and  O_20 
REMARK    5  A    between atoms: C_22  and  O_23 
ROOT
HETATM    1  N   UNL     1       7.511  14.019  24.797  0.00  0.00    -0.244 N 
HETATM    2  C   UNL     1       8.195  14.526  25.888  0.00  0.00     0.349 A 
HETATM    3  O   UNL     1       7.837  15.339  26.728  0.00  0.00    -0.245 OA
HETATM    4  N   UNL     1       9.430  13.900  25.875  0.00  0.00    -0.226 N 
HETATM    5  H   UNL     1      10.178  14.039  26.535  0.00  0.00     0.194 HD
HETATM    6  N   UNL     1       9.548  13.095  24.790  0.00  0.00    -0.151 NA
HETATM    7  C   UNL     1       8.403  13.185  24.158  0.00  0.00     0.171 A 
ENDROOT
BRANCH   7   8
HETATM    8  C   UNL     1       8.230  12.533  22.820  0.00  0.00     0.045 A 
HETATM    9  C   UNL     1       7.420  11.401  22.647  0.00  0.00     0.021 A 
HETATM   10  C   UNL     1       7.097  10.932  21.363  0.00  0.00     0.037 A 
HETATM   11  C   UNL     1       7.563  11.609  20.243  0.00  0.00     0.068 A 
HETATM   12  C   UNL     1       8.378  12.721  20.378  0.00  0.00     0.074 A 
HETATM   13  C   UNL     1       8.718  13.170  21.658  0.00  0.00     0.082 A 
BRANCH  11  14
HETATM   14  O   UNL     1       7.234  11.221  18.977  0.00  0.00    -0.361 OA
HETATM   15  H   UNL     1       6.274  11.307  18.857  0.00  0.00     0.217 HD
ENDBRANCH  11  14
BRANCH  13  16
HETATM   16  O   UNL     1       9.558  14.249  21.742  0.00  0.00    -0.360 OA
HETATM   17  H   UNL     1      10.475  13.947  21.640  0.00  0.00     0.217 HD
ENDBRANCH  13  16
ENDBRANCH   7   8
BRANCH   1  18
HETATM   18  C   UNL     1       6.191  14.402  24.505  0.00  0.00     0.052 A 
HETATM   19  C   UNL     1       5.077  13.562  24.715  0.00  0.00    -0.031 A 
HETATM   20  C   UNL     1       3.804  14.012  24.307  0.00  0.00     0.009 A 
HETATM   21  C   UNL     1       3.622  15.287  23.768  0.00  0.00     0.001 A 
HETATM   22  C   UNL     1       4.703  16.152  23.665  0.00  0.00     0.002 A 
HETATM   23  C   UNL     1       5.974  15.715  24.037  0.00  0.00     0.031 A 
BRANCH  19  24
HETATM   24  C   UNL     1       5.158  12.266  25.492  0.00  0.00     0.036 C 
HETATM   25  C   UNL     1       4.432  11.115  24.799  0.00  0.00     0.010 C 
ENDBRANCH  19  24
ENDBRANCH   1  18
TORSDOF 5
ENDMDL
