REMARK  5 active torsions:
REMARK  status: ('A' for Active; 'I' for Inactive)
REMARK    1  A    between atoms: C_2  and  C_3 
REMARK    2  A    between atoms: C_8  and  N_9 
REMARK    3  A    between atoms: C_15  and  C_16 
REMARK    4  A    between atoms: C_19  and  O_20 
REMARK    5  A    between atoms: C_22  and  O_23 
ROOT
HETATM    1  N   UNL     1       1.279  -2.265  -0.744  0.00  0.00    -0.244 N 
HETATM    2  C   UNL     1       0.463  -3.313  -1.135  0.00  0.00     0.349 A 
HETATM    3  O   UNL     1       0.479  -4.487  -0.793  0.00  0.00    -0.245 OA
HETATM    4  N   UNL     1      -0.445  -2.764  -2.024  0.00  0.00    -0.226 N 
HETATM    5  H   UNL     1      -1.186  -3.253  -2.500  0.00  0.00     0.194 HD
HETATM    6  N   UNL     1      -0.172  -1.453  -2.241  0.00  0.00    -0.151 NA
HETATM    7  C   UNL     1       0.859  -1.178  -1.479  0.00  0.00     0.171 A 
ENDROOT
BRANCH   7   8
HETATM    8  C   UNL     1       1.529   0.159  -1.577  0.00  0.00     0.045 A 
HETATM    9  C   UNL     1       2.911   0.310  -1.390  0.00  0.00     0.021 A 
HETATM   10  C   UNL     1       3.554   1.521  -1.693  0.00  0.00     0.037 A 
HETATM   11  C   UNL     1       2.821   2.582  -2.211  0.00  0.00     0.068 A 
HETATM   12  C   UNL     1       1.452   2.471  -2.394  0.00  0.00     0.074 A 
HETATM   13  C   UNL     1       0.811   1.272  -2.066  0.00  0.00     0.082 A 
BRANCH  11  14
HETATM   14  O   UNL     1       3.410   3.759  -2.568  0.00  0.00    -0.361 OA
HETATM   15  H   UNL     1       4.364   3.703  -2.395  0.00  0.00     0.217 HD
ENDBRANCH  11  14
BRANCH  13  16
HETATM   16  O   UNL     1      -0.549   1.223  -2.226  0.00  0.00    -0.360 OA
HETATM   17  H   UNL     1      -0.813   1.868  -2.902  0.00  0.00     0.217 HD
ENDBRANCH  13  16
ENDBRANCH   7   8
BRANCH   1  18
HETATM   18  C   UNL     1       2.311  -2.438   0.194  0.00  0.00     0.052 A 
HETATM   19  C   UNL     1       2.413  -1.681   1.380  0.00  0.00    -0.031 A 
HETATM   20  C   UNL     1       3.537  -1.874   2.211  0.00  0.00     0.009 A 
HETATM   21  C   UNL     1       4.502  -2.839   1.916  0.00  0.00     0.001 A 
HETATM   22  C   UNL     1       4.341  -3.657   0.806  0.00  0.00     0.002 A 
HETATM   23  C   UNL     1       3.251  -3.462  -0.042  0.00  0.00     0.031 A 
BRANCH  19  24
HETATM   24  C   UNL     1       1.304  -0.782   1.881  0.00  0.00     0.036 C 
HETATM   25  C   UNL     1       0.058  -1.559   2.301  0.00  0.00     0.010 C 
ENDBRANCH  19  24
ENDBRANCH   1  18
TORSDOF 5
