MODEL 1
REMARK VINA RESULT:    -7.616      0.000      0.000
REMARK INTER + INTRA:         -12.370
REMARK INTER:                  -9.989
REMARK INTRA:                  -2.381
REMARK UNBOUND:                -2.083
REMARK  7 active torsions:
REMARK  status: ('A' for Active; 'I' for Inactive)
REMARK    1  A    between atoms: C_2  and  N_4 
REMARK    2  A    between atoms: N_4  and  S_6 
REMARK    3  A    between atoms: S_6  and  C_9 
REMARK    4  A    between atoms: C_11  and  C_12 
REMARK    5  A    between atoms: N_18  and  C_19 
REMARK    6  A    between atoms: C_26  and  O_27 
REMARK    7  A    between atoms: C_29  and  O_30 
ROOT
HETATM    1  C   UNL     1       6.764  10.905  21.529  0.00  0.00     0.108 A 
HETATM    2  C   UNL     1       7.326  11.684  22.552  0.00  0.00     0.046 A 
HETATM    3  C   UNL     1       8.201  12.732  22.256  0.00  0.00     0.047 A 
HETATM    4  C   UNL     1       8.437  13.042  20.913  0.00  0.00     0.082 A 
HETATM    5  C   UNL     1       7.915  12.247  19.891  0.00  0.00     0.075 A 
HETATM    6  C   UNL     1       7.091  11.165  20.199  0.00  0.00     0.091 A 
ENDROOT
BRANCH   3   7
HETATM    7  C   UNL     1       8.820  13.547  23.328  0.00  0.00     0.172 A 
HETATM    8  N   UNL     1      10.101  13.463  23.574  0.00  0.00    -0.151 NA
HETATM    9  N   UNL     1      10.308  14.381  24.562  0.00  0.00    -0.226 N 
HETATM   10  H   UNL     1      11.204  14.518  25.014  0.00  0.00     0.194 HD
HETATM   11  C   UNL     1       9.111  14.981  24.953  0.00  0.00     0.349 A 
HETATM   12  O   UNL     1       8.994  15.735  25.909  0.00  0.00    -0.245 OA
HETATM   13  N   UNL     1       8.153  14.459  24.110  0.00  0.00    -0.243 N 
BRANCH  13  14
HETATM   14  C   UNL     1       6.770  14.719  24.213  0.00  0.00     0.067 A 
HETATM   15  C   UNL     1       6.163  15.562  23.264  0.00  0.00     0.032 A 
HETATM   16  C   UNL     1       4.870  16.047  23.460  0.00  0.00     0.002 A 
HETATM   17  C   UNL     1       4.159  15.686  24.599  0.00  0.00     0.002 A 
HETATM   18  C   UNL     1       4.714  14.789  25.509  0.00  0.00     0.026 A 
HETATM   19  C   UNL     1       6.006  14.284  25.313  0.00  0.00     0.061 A 
HETATM   20 CL   UNL     1       6.640  13.277  26.567  0.00  0.00    -0.082 Cl
ENDBRANCH  13  14
ENDBRANCH   3   7
BRANCH   4  21
HETATM   21  O   UNL     1       9.159  14.133  20.512  0.00  0.00    -0.360 OA
HETATM   22  H   UNL     1       8.546  14.899  20.441  0.00  0.00     0.217 HD
ENDBRANCH   4  21
BRANCH   1  23
HETATM   23  S   UNL     1       5.610   9.632  22.015  0.00  0.00     0.246 S 
HETATM   24  O   UNL     1       6.377   8.425  22.234  0.00  0.00    -0.206 OA
HETATM   25  O   UNL     1       4.500   9.602  21.085  0.00  0.00    -0.206 OA
BRANCH  23  26
HETATM   26  N   UNL     1       5.034  10.245  23.534  0.00  0.00    -0.207 NA
HETATM   27  C   UNL     1       5.166   9.217  24.612  0.00  0.00     0.130 C 
BRANCH  26  28
HETATM   28  C   UNL     1       3.724  11.001  23.580  0.00  0.00     0.065 C 
HETATM   29  C   UNL     1       3.309  11.278  25.034  0.00  0.00     0.027 C 
HETATM   30  C   UNL     1       3.793  12.363  22.884  0.00  0.00     0.027 C 
ENDBRANCH  26  28
ENDBRANCH  23  26
ENDBRANCH   1  23
BRANCH   6  31
HETATM   31  O   UNL     1       6.562  10.438  19.179  0.00  0.00    -0.359 OA
HETATM   32  H   UNL     1       6.074  11.017  18.570  0.00  0.00     0.217 HD
ENDBRANCH   6  31
TORSDOF 7
ENDMDL
MODEL 2
REMARK VINA RESULT:    -7.478      1.377      1.916
REMARK INTER + INTRA:         -12.184
REMARK INTER:                 -10.463
REMARK INTRA:                  -1.721
REMARK UNBOUND:                -2.083
REMARK  7 active torsions:
REMARK  status: ('A' for Active; 'I' for Inactive)
REMARK    1  A    between atoms: C_2  and  N_4 
REMARK    2  A    between atoms: N_4  and  S_6 
REMARK    3  A    between atoms: S_6  and  C_9 
REMARK    4  A    between atoms: C_11  and  C_12 
REMARK    5  A    between atoms: N_18  and  C_19 
REMARK    6  A    between atoms: C_26  and  O_27 
REMARK    7  A    between atoms: C_29  and  O_30 
ROOT
HETATM    1  C   UNL     1       6.652  10.986  21.515  0.00  0.00     0.108 A 
HETATM    2  C   UNL     1       7.218  11.773  22.529  0.00  0.00     0.046 A 
HETATM    3  C   UNL     1       8.194  12.728  22.235  0.00  0.00     0.047 A 
HETATM    4  C   UNL     1       8.532  12.943  20.894  0.00  0.00     0.082 A 
HETATM    5  C   UNL     1       8.004  12.135  19.885  0.00  0.00     0.075 A 
HETATM    6  C   UNL     1       7.076  11.143  20.197  0.00  0.00     0.091 A 
ENDROOT
BRANCH   3   7
HETATM    7  C   UNL     1       8.816  13.550  23.299  0.00  0.00     0.172 A 
HETATM    8  N   UNL     1      10.097  13.463  23.547  0.00  0.00    -0.151 NA
HETATM    9  N   UNL     1      10.308  14.388  24.527  0.00  0.00    -0.226 N 
HETATM   10  H   UNL     1      11.205  14.525  24.977  0.00  0.00     0.194 HD
HETATM   11  C   UNL     1       9.113  14.997  24.912  0.00  0.00     0.349 A 
HETATM   12  O   UNL     1       9.000  15.760  25.862  0.00  0.00    -0.245 OA
HETATM   13  N   UNL     1       8.154  14.472  24.073  0.00  0.00    -0.243 N 
BRANCH  13  14
HETATM   14  C   UNL     1       6.771  14.739  24.174  0.00  0.00     0.067 A 
HETATM   15  C   UNL     1       6.167  15.571  23.215  0.00  0.00     0.032 A 
HETATM   16  C   UNL     1       4.876  16.064  23.405  0.00  0.00     0.002 A 
HETATM   17  C   UNL     1       4.165  15.723  24.549  0.00  0.00     0.002 A 
HETATM   18  C   UNL     1       4.717  14.836  25.472  0.00  0.00     0.026 A 
HETATM   19  C   UNL     1       6.007  14.323  25.282  0.00  0.00     0.061 A 
HETATM   20 CL   UNL     1       6.638  13.331  26.548  0.00  0.00    -0.082 Cl
ENDBRANCH  13  14
ENDBRANCH   3   7
BRANCH   4  21
HETATM   21  O   UNL     1       9.365  13.947  20.484  0.00  0.00    -0.360 OA
HETATM   22  H   UNL     1       9.737  14.384  21.282  0.00  0.00     0.217 HD
ENDBRANCH   4  21
BRANCH   1  23
HETATM   23  S   UNL     1       5.369   9.840  21.994  0.00  0.00     0.246 S 
HETATM   24  O   UNL     1       4.656   9.475  20.788  0.00  0.00    -0.206 OA
HETATM   25  O   UNL     1       4.627  10.382  23.113  0.00  0.00    -0.206 OA
BRANCH  23  26
HETATM   26  N   UNL     1       6.300   8.488  22.558  0.00  0.00    -0.207 NA
HETATM   27  C   UNL     1       5.836   7.216  21.925  0.00  0.00     0.130 C 
BRANCH  26  28
HETATM   28  C   UNL     1       6.593   8.354  24.036  0.00  0.00     0.065 C 
HETATM   29  C   UNL     1       6.337   6.915  24.510  0.00  0.00     0.027 C 
HETATM   30  C   UNL     1       8.048   8.674  24.391  0.00  0.00     0.027 C 
ENDBRANCH  26  28
ENDBRANCH  23  26
ENDBRANCH   1  23
BRANCH   6  31
HETATM   31  O   UNL     1       6.547  10.405  19.184  0.00  0.00    -0.359 OA
HETATM   32  H   UNL     1       6.820  10.767  18.324  0.00  0.00     0.217 HD
ENDBRANCH   6  31
TORSDOF 7
ENDMDL
MODEL 3
REMARK VINA RESULT:    -7.386      1.818      2.450
REMARK INTER + INTRA:         -12.059
REMARK INTER:                 -10.084
REMARK INTRA:                  -1.975
REMARK UNBOUND:                -2.083
REMARK  7 active torsions:
REMARK  status: ('A' for Active; 'I' for Inactive)
REMARK    1  A    between atoms: C_2  and  N_4 
REMARK    2  A    between atoms: N_4  and  S_6 
REMARK    3  A    between atoms: S_6  and  C_9 
REMARK    4  A    between atoms: C_11  and  C_12 
REMARK    5  A    between atoms: N_18  and  C_19 
REMARK    6  A    between atoms: C_26  and  O_27 
REMARK    7  A    between atoms: C_29  and  O_30 
ROOT
HETATM    1  C   UNL     1       6.223  10.635  21.589  0.00  0.00     0.108 A 
HETATM    2  C   UNL     1       6.539  11.255  22.807  0.00  0.00     0.046 A 
HETATM    3  C   UNL     1       7.480  12.285  22.864  0.00  0.00     0.047 A 
HETATM    4  C   UNL     1       8.038  12.744  21.666  0.00  0.00     0.082 A 
HETATM    5  C   UNL     1       7.759  12.105  20.456  0.00  0.00     0.075 A 
HETATM    6  C   UNL     1       6.864  11.037  20.419  0.00  0.00     0.091 A 
ENDROOT
BRANCH   3   7
HETATM    7  C   UNL     1       7.840  12.932  24.148  0.00  0.00     0.172 A 
HETATM    8  N   UNL     1       8.979  12.667  24.733  0.00  0.00    -0.151 NA
HETATM    9  N   UNL     1       8.982  13.475  25.832  0.00  0.00    -0.226 N 
HETATM   10  H   UNL     1       9.717  13.462  26.528  0.00  0.00     0.194 HD
HETATM   11  C   UNL     1       7.790  14.192  25.935  0.00  0.00     0.349 A 
HETATM   12  O   UNL     1       7.477  14.882  26.895  0.00  0.00    -0.245 OA
HETATM   13  N   UNL     1       7.071  13.861  24.806  0.00  0.00    -0.243 N 
BRANCH  13  14
HETATM   14  C   UNL     1       5.751  14.288  24.545  0.00  0.00     0.067 A 
HETATM   15  C   UNL     1       5.551  15.467  23.804  0.00  0.00     0.032 A 
HETATM   16  C   UNL     1       4.291  16.062  23.731  0.00  0.00     0.002 A 
HETATM   17  C   UNL     1       3.211  15.482  24.386  0.00  0.00     0.002 A 
HETATM   18  C   UNL     1       3.374  14.272  25.059  0.00  0.00     0.026 A 
HETATM   19  C   UNL     1       4.632  13.659  25.124  0.00  0.00     0.061 A 
HETATM   20 CL   UNL     1       4.744  12.228  26.087  0.00  0.00    -0.082 Cl
ENDBRANCH  13  14
ENDBRANCH   3   7
BRANCH   4  21
HETATM   21  O   UNL     1       8.856  13.837  21.591  0.00  0.00    -0.360 OA
HETATM   22  H   UNL     1       8.293  14.641  21.536  0.00  0.00     0.217 HD
ENDBRANCH   4  21
BRANCH   1  23
HETATM   23  S   UNL     1       4.960   9.373  21.620  0.00  0.00     0.246 S 
HETATM   24  O   UNL     1       4.316   9.385  20.324  0.00  0.00    -0.206 OA
HETATM   25  O   UNL     1       4.150   9.525  22.811  0.00  0.00    -0.206 OA
BRANCH  23  26
HETATM   26  N   UNL     1       5.912   7.931  21.788  0.00  0.00    -0.207 NA
HETATM   27  C   UNL     1       5.432   6.860  20.863  0.00  0.00     0.130 C 
BRANCH  26  28
HETATM   28  C   UNL     1       6.252   7.423  23.172  0.00  0.00     0.065 C 
HETATM   29  C   UNL     1       6.264   5.886  23.197  0.00  0.00     0.027 C 
HETATM   30  C   UNL     1       7.633   7.874  23.654  0.00  0.00     0.027 C 
ENDBRANCH  26  28
ENDBRANCH  23  26
ENDBRANCH   1  23
BRANCH   6  31
HETATM   31  O   UNL     1       6.581  10.467  19.217  0.00  0.00    -0.359 OA
HETATM   32  H   UNL     1       6.387  11.153  18.556  0.00  0.00     0.217 HD
ENDBRANCH   6  31
TORSDOF 7
ENDMDL
MODEL 4
REMARK VINA RESULT:    -7.362      2.596      3.843
REMARK INTER + INTRA:         -12.027
REMARK INTER:                 -10.010
REMARK INTRA:                  -2.016
REMARK UNBOUND:                -2.083
REMARK  7 active torsions:
REMARK  status: ('A' for Active; 'I' for Inactive)
REMARK    1  A    between atoms: C_2  and  N_4 
REMARK    2  A    between atoms: N_4  and  S_6 
REMARK    3  A    between atoms: S_6  and  C_9 
REMARK    4  A    between atoms: C_11  and  C_12 
REMARK    5  A    between atoms: N_18  and  C_19 
REMARK    6  A    between atoms: C_26  and  O_27 
REMARK    7  A    between atoms: C_29  and  O_30 
ROOT
HETATM    1  C   UNL     1       5.223  10.478  22.937  0.00  0.00     0.108 A 
HETATM    2  C   UNL     1       6.261  11.270  23.451  0.00  0.00     0.046 A 
HETATM    3  C   UNL     1       6.194  11.785  24.747  0.00  0.00     0.047 A 
HETATM    4  C   UNL     1       5.108  11.423  25.552  0.00  0.00     0.082 A 
HETATM    5  C   UNL     1       4.052  10.671  25.034  0.00  0.00     0.075 A 
HETATM    6  C   UNL     1       4.101  10.212  23.718  0.00  0.00     0.091 A 
ENDROOT
BRANCH   3   7
HETATM    7  C   UNL     1       7.272  12.642  25.295  0.00  0.00     0.172 A 
HETATM    8  N   UNL     1       8.377  12.113  25.754  0.00  0.00    -0.151 NA
HETATM    9  N   UNL     1       9.135  13.190  26.110  0.00  0.00    -0.226 N 
HETATM   10  H   UNL     1      10.040  13.108  26.556  0.00  0.00     0.194 HD
HETATM   11  C   UNL     1       8.441  14.384  25.913  0.00  0.00     0.349 A 
HETATM   12  O   UNL     1       8.836  15.482  26.278  0.00  0.00    -0.245 OA
HETATM   13  N   UNL     1       7.243  14.014  25.341  0.00  0.00    -0.243 N 
BRANCH  13  14
HETATM   14  C   UNL     1       6.183  14.904  25.059  0.00  0.00     0.067 A 
HETATM   15  C   UNL     1       5.246  15.188  26.068  0.00  0.00     0.032 A 
HETATM   16  C   UNL     1       4.056  15.854  25.775  0.00  0.00     0.002 A 
HETATM   17  C   UNL     1       3.791  16.259  24.471  0.00  0.00     0.002 A 
HETATM   18  C   UNL     1       4.744  16.057  23.474  0.00  0.00     0.026 A 
HETATM   19  C   UNL     1       5.949  15.403  23.763  0.00  0.00     0.061 A 
HETATM   20 CL   UNL     1       7.002  15.098  22.426  0.00  0.00    -0.082 Cl
ENDBRANCH  13  14
ENDBRANCH   3   7
BRANCH   4  21
HETATM   21  O   UNL     1       5.015  11.752  26.876  0.00  0.00    -0.360 OA
HETATM   22  H   UNL     1       5.179  12.717  26.967  0.00  0.00     0.217 HD
ENDBRANCH   4  21
BRANCH   1  23
HETATM   23  S   UNL     1       5.441   9.819  21.291  0.00  0.00     0.246 S 
HETATM   24  O   UNL     1       6.778  10.173  20.866  0.00  0.00    -0.206 OA
HETATM   25  O   UNL     1       4.315  10.198  20.464  0.00  0.00    -0.206 OA
BRANCH  23  26
HETATM   26  N   UNL     1       5.351   8.110  21.585  0.00  0.00    -0.207 NA
HETATM   27  C   UNL     1       6.518   7.643  22.395  0.00  0.00     0.130 C 
BRANCH  26  28
HETATM   28  C   UNL     1       4.998   7.179  20.446  0.00  0.00     0.065 C 
HETATM   29  C   UNL     1       5.826   5.887  20.526  0.00  0.00     0.027 C 
HETATM   30  C   UNL     1       3.528   6.751  20.456  0.00  0.00     0.027 C 
ENDBRANCH  26  28
ENDBRANCH  23  26
ENDBRANCH   1  23
BRANCH   6  31
HETATM   31  O   UNL     1       3.077   9.443  23.259  0.00  0.00    -0.359 OA
HETATM   32  H   UNL     1       2.407   9.323  23.953  0.00  0.00     0.217 HD
ENDBRANCH   6  31
TORSDOF 7
ENDMDL
MODEL 5
REMARK VINA RESULT:    -7.040      3.148      5.484
REMARK INTER + INTRA:         -11.592
REMARK INTER:                  -9.843
REMARK INTRA:                  -1.748
REMARK UNBOUND:                -2.083
REMARK  7 active torsions:
REMARK  status: ('A' for Active; 'I' for Inactive)
REMARK    1  A    between atoms: C_2  and  N_4 
REMARK    2  A    between atoms: N_4  and  S_6 
REMARK    3  A    between atoms: S_6  and  C_9 
REMARK    4  A    between atoms: C_11  and  C_12 
REMARK    5  A    between atoms: N_18  and  C_19 
REMARK    6  A    between atoms: C_26  and  O_27 
REMARK    7  A    between atoms: C_29  and  O_30 
ROOT
HETATM    1  C   UNL     1       6.048  15.071  24.751  0.00  0.00     0.108 A 
HETATM    2  C   UNL     1       6.326  14.945  23.382  0.00  0.00     0.046 A 
HETATM    3  C   UNL     1       7.594  14.558  22.941  0.00  0.00     0.047 A 
HETATM    4  C   UNL     1       8.555  14.215  23.899  0.00  0.00     0.082 A 
HETATM    5  C   UNL     1       8.298  14.377  25.262  0.00  0.00     0.075 A 
HETATM    6  C   UNL     1       7.048  14.824  25.689  0.00  0.00     0.091 A 
ENDROOT
BRANCH   3   7
HETATM    7  C   UNL     1       7.909  14.443  21.498  0.00  0.00     0.172 A 
HETATM    8  N   UNL     1       8.188  15.506  20.789  0.00  0.00    -0.151 NA
HETATM    9  N   UNL     1       8.474  15.012  19.551  0.00  0.00    -0.226 N 
HETATM   10  H   UNL     1       8.679  15.600  18.752  0.00  0.00     0.194 HD
HETATM   11  C   UNL     1       8.303  13.628  19.508  0.00  0.00     0.349 A 
HETATM   12  O   UNL     1       8.360  12.954  18.488  0.00  0.00    -0.245 OA
HETATM   13  N   UNL     1       7.976  13.264  20.797  0.00  0.00    -0.243 N 
BRANCH  13  14
HETATM   14  C   UNL     1       7.619  11.957  21.192  0.00  0.00     0.067 A 
HETATM   15  C   UNL     1       6.262  11.657  21.404  0.00  0.00     0.032 A 
HETATM   16  C   UNL     1       5.879  10.469  22.028  0.00  0.00     0.002 A 
HETATM   17  C   UNL     1       6.846   9.558  22.437  0.00  0.00     0.002 A 
HETATM   18  C   UNL     1       8.191   9.803  22.164  0.00  0.00     0.026 A 
HETATM   19  C   UNL     1       8.583  10.985  21.524  0.00  0.00     0.061 A 
HETATM   20 CL   UNL     1      10.284  11.240  21.346  0.00  0.00    -0.082 Cl
ENDBRANCH  13  14
ENDBRANCH   3   7
BRANCH   4  21
HETATM   21  O   UNL     1       9.775  13.687  23.579  0.00  0.00    -0.360 OA
HETATM   22  H   UNL     1       9.753  13.407  22.637  0.00  0.00     0.217 HD
ENDBRANCH   4  21
BRANCH   1  23
HETATM   23  S   UNL     1       4.377  15.511  25.205  0.00  0.00     0.246 S 
HETATM   24  O   UNL     1       3.924  16.498  24.248  0.00  0.00    -0.206 OA
HETATM   25  O   UNL     1       4.324  15.824  26.617  0.00  0.00    -0.206 OA
BRANCH  23  26
HETATM   26  N   UNL     1       3.538  14.014  24.944  0.00  0.00    -0.207 NA
HETATM   27  C   UNL     1       4.365  12.851  25.392  0.00  0.00     0.130 C 
BRANCH  26  28
HETATM   28  C   UNL     1       2.832  13.779  23.627  0.00  0.00     0.065 C 
HETATM   29  C   UNL     1       2.880  12.291  23.244  0.00  0.00     0.027 C 
HETATM   30  C   UNL     1       1.351  14.168  23.663  0.00  0.00     0.027 C 
ENDBRANCH  26  28
ENDBRANCH  23  26
ENDBRANCH   1  23
BRANCH   6  31
HETATM   31  O   UNL     1       6.815  14.927  27.025  0.00  0.00    -0.359 OA
HETATM   32  H   UNL     1       6.073  15.531  27.192  0.00  0.00     0.217 HD
ENDBRANCH   6  31
TORSDOF 7
ENDMDL
MODEL 6
REMARK VINA RESULT:    -6.969      2.302      2.916
REMARK INTER + INTRA:         -11.497
REMARK INTER:                  -9.751
REMARK INTRA:                  -1.745
REMARK UNBOUND:                -2.083
REMARK  7 active torsions:
REMARK  status: ('A' for Active; 'I' for Inactive)
REMARK    1  A    between atoms: C_2  and  N_4 
REMARK    2  A    between atoms: N_4  and  S_6 
REMARK    3  A    between atoms: S_6  and  C_9 
REMARK    4  A    between atoms: C_11  and  C_12 
REMARK    5  A    between atoms: N_18  and  C_19 
REMARK    6  A    between atoms: C_26  and  O_27 
REMARK    7  A    between atoms: C_29  and  O_30 
ROOT
HETATM    1  C   UNL     1       4.736  10.686  23.714  0.00  0.00     0.108 A 
HETATM    2  C   UNL     1       5.589  11.475  24.501  0.00  0.00     0.046 A 
HETATM    3  C   UNL     1       6.829  11.894  24.014  0.00  0.00     0.047 A 
HETATM    4  C   UNL     1       7.166  11.581  22.692  0.00  0.00     0.082 A 
HETATM    5  C   UNL     1       6.341  10.762  21.918  0.00  0.00     0.075 A 
HETATM    6  C   UNL     1       5.132  10.298  22.436  0.00  0.00     0.091 A 
ENDROOT
BRANCH   3   7
HETATM    7  C   UNL     1       7.750  12.708  24.842  0.00  0.00     0.172 A 
HETATM    8  N   UNL     1       8.856  12.194  25.313  0.00  0.00    -0.151 NA
HETATM    9  N   UNL     1       9.455  13.234  25.961  0.00  0.00    -0.226 N 
HETATM   10  H   UNL     1      10.316  13.140  26.484  0.00  0.00     0.194 HD
HETATM   11  C   UNL     1       8.656  14.377  25.926  0.00  0.00     0.349 A 
HETATM   12  O   UNL     1       8.891  15.406  26.545  0.00  0.00    -0.245 OA
HETATM   13  N   UNL     1       7.566  14.033  25.156  0.00  0.00    -0.243 N 
BRANCH  13  14
HETATM   14  C   UNL     1       6.448  14.866  24.935  0.00  0.00     0.067 A 
HETATM   15  C   UNL     1       5.507  15.030  25.967  0.00  0.00     0.032 A 
HETATM   16  C   UNL     1       4.273  15.632  25.723  0.00  0.00     0.002 A 
HETATM   17  C   UNL     1       3.966  16.092  24.447  0.00  0.00     0.002 A 
HETATM   18  C   UNL     1       4.917  16.010  23.432  0.00  0.00     0.026 A 
HETATM   19  C   UNL     1       6.165  15.421  23.672  0.00  0.00     0.061 A 
HETATM   20 CL   UNL     1       7.218  15.262  22.311  0.00  0.00    -0.082 Cl
ENDBRANCH  13  14
ENDBRANCH   3   7
BRANCH   4  21
HETATM   21  O   UNL     1       8.286  12.061  22.071  0.00  0.00    -0.360 OA
HETATM   22  H   UNL     1       8.591  12.858  22.558  0.00  0.00     0.217 HD
ENDBRANCH   4  21
BRANCH   1  23
HETATM   23  S   UNL     1       3.148  10.260  24.411  0.00  0.00     0.246 S 
HETATM   24  O   UNL     1       3.276  10.357  25.849  0.00  0.00    -0.206 OA
HETATM   25  O   UNL     1       2.678   9.021  23.827  0.00  0.00    -0.206 OA
BRANCH  23  26
HETATM   26  N   UNL     1       2.150  11.554  23.822  0.00  0.00    -0.207 NA
HETATM   27  C   UNL     1       2.984  12.699  23.344  0.00  0.00     0.130 C 
BRANCH  26  28
HETATM   28  C   UNL     1       0.942  11.983  24.625  0.00  0.00     0.065 C 
HETATM   29  C   UNL     1       1.122  13.416  25.151  0.00  0.00     0.027 C 
HETATM   30  C   UNL     1      -0.353  11.982  23.807  0.00  0.00     0.027 C 
ENDBRANCH  26  28
ENDBRANCH  23  26
ENDBRANCH   1  23
BRANCH   6  31
HETATM   31  O   UNL     1       4.332   9.540  21.639  0.00  0.00    -0.359 OA
HETATM   32  H   UNL     1       4.443   8.598  21.848  0.00  0.00     0.217 HD
ENDBRANCH   6  31
TORSDOF 7
ENDMDL
MODEL 7
REMARK VINA RESULT:    -6.954      1.919      2.756
REMARK INTER + INTRA:         -11.476
REMARK INTER:                  -9.354
REMARK INTRA:                  -2.122
REMARK UNBOUND:                -2.083
REMARK  7 active torsions:
REMARK  status: ('A' for Active; 'I' for Inactive)
REMARK    1  A    between atoms: C_2  and  N_4 
REMARK    2  A    between atoms: N_4  and  S_6 
REMARK    3  A    between atoms: S_6  and  C_9 
REMARK    4  A    between atoms: C_11  and  C_12 
REMARK    5  A    between atoms: N_18  and  C_19 
REMARK    6  A    between atoms: C_26  and  O_27 
REMARK    7  A    between atoms: C_29  and  O_30 
ROOT
HETATM    1  C   UNL     1       5.062  10.272  23.313  0.00  0.00     0.108 A 
HETATM    2  C   UNL     1       5.986  11.212  23.795  0.00  0.00     0.046 A 
HETATM    3  C   UNL     1       6.886  11.839  22.931  0.00  0.00     0.047 A 
HETATM    4  C   UNL     1       6.788  11.572  21.560  0.00  0.00     0.082 A 
HETATM    5  C   UNL     1       5.900  10.608  21.080  0.00  0.00     0.075 A 
HETATM    6  C   UNL     1       5.047   9.943  21.959  0.00  0.00     0.091 A 
ENDROOT
BRANCH   3   7
HETATM    7  C   UNL     1       7.882  12.816  23.429  0.00  0.00     0.172 A 
HETATM    8  N   UNL     1       9.162  12.556  23.364  0.00  0.00    -0.151 NA
HETATM    9  N   UNL     1       9.754  13.685  23.851  0.00  0.00    -0.226 N 
HETATM   10  H   UNL     1      10.753  13.775  23.982  0.00  0.00     0.194 HD
HETATM   11  C   UNL     1       8.800  14.613  24.271  0.00  0.00     0.349 A 
HETATM   12  O   UNL     1       9.058  15.647  24.871  0.00  0.00    -0.245 OA
HETATM   13  N   UNL     1       7.583  14.051  23.950  0.00  0.00    -0.243 N 
BRANCH  13  14
HETATM   14  C   UNL     1       6.331  14.610  24.286  0.00  0.00     0.067 A 
HETATM   15  C   UNL     1       5.638  15.358  23.318  0.00  0.00     0.032 A 
HETATM   16  C   UNL     1       4.531  16.131  23.667  0.00  0.00     0.002 A 
HETATM   17  C   UNL     1       4.093  16.159  24.986  0.00  0.00     0.002 A 
HETATM   18  C   UNL     1       4.719  15.363  25.943  0.00  0.00     0.026 A 
HETATM   19  C   UNL     1       5.822  14.570  25.598  0.00  0.00     0.061 A 
HETATM   20 CL   UNL     1       6.595  13.719  26.889  0.00  0.00    -0.082 Cl
ENDBRANCH  13  14
ENDBRANCH   3   7
BRANCH   4  21
HETATM   21  O   UNL     1       7.520  12.236  20.615  0.00  0.00    -0.360 OA
HETATM   22  H   UNL     1       6.958  12.946  20.232  0.00  0.00     0.217 HD
ENDBRANCH   4  21
BRANCH   1  23
HETATM   23  S   UNL     1       3.915   9.578  24.494  0.00  0.00     0.246 S 
HETATM   24  O   UNL     1       2.582   9.863  24.008  0.00  0.00    -0.206 OA
HETATM   25  O   UNL     1       4.282   9.997  25.831  0.00  0.00    -0.206 OA
BRANCH  23  26
HETATM   26  N   UNL     1       4.244   7.880  24.344  0.00  0.00    -0.207 NA
HETATM   27  C   UNL     1       2.979   7.084  24.370  0.00  0.00     0.130 C 
BRANCH  26  28
HETATM   28  C   UNL     1       5.359   7.265  25.161  0.00  0.00     0.065 C 
HETATM   29  C   UNL     1       5.015   5.818  25.546  0.00  0.00     0.027 C 
HETATM   30  C   UNL     1       6.692   7.207  24.408  0.00  0.00     0.027 C 
ENDBRANCH  26  28
ENDBRANCH  23  26
ENDBRANCH   1  23
BRANCH   6  31
HETATM   31  O   UNL     1       4.163   9.043  21.452  0.00  0.00    -0.359 OA
HETATM   32  H   UNL     1       3.322   9.481  21.236  0.00  0.00     0.217 HD
ENDBRANCH   6  31
TORSDOF 7
ENDMDL
MODEL 8
REMARK VINA RESULT:    -6.931      2.102      2.700
REMARK INTER + INTRA:         -11.445
REMARK INTER:                  -9.372
REMARK INTRA:                  -2.074
REMARK UNBOUND:                -2.083
REMARK  7 active torsions:
REMARK  status: ('A' for Active; 'I' for Inactive)
REMARK    1  A    between atoms: C_2  and  N_4 
REMARK    2  A    between atoms: N_4  and  S_6 
REMARK    3  A    between atoms: S_6  and  C_9 
REMARK    4  A    between atoms: C_11  and  C_12 
REMARK    5  A    between atoms: N_18  and  C_19 
REMARK    6  A    between atoms: C_26  and  O_27 
REMARK    7  A    between atoms: C_29  and  O_30 
ROOT
HETATM    1  C   UNL     1       4.940  10.193  23.646  0.00  0.00     0.108 A 
HETATM    2  C   UNL     1       5.881  11.169  24.007  0.00  0.00     0.046 A 
HETATM    3  C   UNL     1       6.720  11.744  23.049  0.00  0.00     0.047 A 
HETATM    4  C   UNL     1       6.542  11.387  21.708  0.00  0.00     0.082 A 
HETATM    5  C   UNL     1       5.636  10.388  21.347  0.00  0.00     0.075 A 
HETATM    6  C   UNL     1       4.846   9.776  22.319  0.00  0.00     0.091 A 
ENDROOT
BRANCH   3   7
HETATM    7  C   UNL     1       7.734  12.758  23.420  0.00  0.00     0.172 A 
HETATM    8  N   UNL     1       9.011  12.502  23.299  0.00  0.00    -0.151 NA
HETATM    9  N   UNL     1       9.619  13.665  23.672  0.00  0.00    -0.226 N 
HETATM   10  H   UNL     1      10.624  13.769  23.737  0.00  0.00     0.194 HD
HETATM   11  C   UNL     1       8.683  14.614  24.082  0.00  0.00     0.349 A 
HETATM   12  O   UNL     1       8.966  15.689  24.594  0.00  0.00    -0.245 OA
HETATM   13  N   UNL     1       7.455  14.025  23.872  0.00  0.00    -0.243 N 
BRANCH  13  14
HETATM   14  C   UNL     1       6.219  14.599  24.243  0.00  0.00     0.067 A 
HETATM   15  C   UNL     1       5.493  15.329  23.284  0.00  0.00     0.032 A 
HETATM   16  C   UNL     1       4.404  16.117  23.657  0.00  0.00     0.002 A 
HETATM   17  C   UNL     1       4.016  16.177  24.991  0.00  0.00     0.002 A 
HETATM   18  C   UNL     1       4.674  15.398  25.941  0.00  0.00     0.026 A 
HETATM   19  C   UNL     1       5.759  14.592  25.573  0.00  0.00     0.061 A 
HETATM   20 CL   UNL     1       6.576  13.765  26.853  0.00  0.00    -0.082 Cl
ENDBRANCH  13  14
ENDBRANCH   3   7
BRANCH   4  21
HETATM   21  O   UNL     1       7.207  11.993  20.678  0.00  0.00    -0.360 OA
HETATM   22  H   UNL     1       7.137  12.966  20.795  0.00  0.00     0.217 HD
ENDBRANCH   4  21
BRANCH   1  23
HETATM   23  S   UNL     1       3.876   9.571  24.938  0.00  0.00     0.246 S 
HETATM   24  O   UNL     1       4.183  10.319  26.138  0.00  0.00    -0.206 OA
HETATM   25  O   UNL     1       3.948   8.125  24.972  0.00  0.00    -0.206 OA
BRANCH  23  26
HETATM   26  N   UNL     1       2.307  10.026  24.348  0.00  0.00    -0.207 NA
HETATM   27  C   UNL     1       2.154  11.513  24.324  0.00  0.00     0.130 C 
BRANCH  26  28
HETATM   28  C   UNL     1       1.083   9.302  24.863  0.00  0.00     0.065 C 
HETATM   29  C   UNL     1      -0.105  10.269  24.989  0.00  0.00     0.027 C 
HETATM   30  C   UNL     1       0.622   8.170  23.940  0.00  0.00     0.027 C 
ENDBRANCH  26  28
ENDBRANCH  23  26
ENDBRANCH   1  23
BRANCH   6  31
HETATM   31  O   UNL     1       3.942   8.838  21.928  0.00  0.00    -0.359 OA
HETATM   32  H   UNL     1       3.853   8.839  20.960  0.00  0.00     0.217 HD
ENDBRANCH   6  31
TORSDOF 7
ENDMDL
MODEL 9
REMARK VINA RESULT:    -6.874      2.034      2.707
REMARK INTER + INTRA:         -11.368
REMARK INTER:                  -9.285
REMARK INTRA:                  -2.083
REMARK UNBOUND:                -2.083
REMARK  7 active torsions:
REMARK  status: ('A' for Active; 'I' for Inactive)
REMARK    1  A    between atoms: C_2  and  N_4 
REMARK    2  A    between atoms: N_4  and  S_6 
REMARK    3  A    between atoms: S_6  and  C_9 
REMARK    4  A    between atoms: C_11  and  C_12 
REMARK    5  A    between atoms: N_18  and  C_19 
REMARK    6  A    between atoms: C_26  and  O_27 
REMARK    7  A    between atoms: C_29  and  O_30 
ROOT
HETATM    1  C   UNL     1       6.393  10.798  23.104  0.00  0.00     0.108 A 
HETATM    2  C   UNL     1       6.876  11.646  24.112  0.00  0.00     0.046 A 
HETATM    3  C   UNL     1       8.178  12.149  24.061  0.00  0.00     0.047 A 
HETATM    4  C   UNL     1       8.961  11.857  22.938  0.00  0.00     0.082 A 
HETATM    5  C   UNL     1       8.501  10.981  21.953  0.00  0.00     0.075 A 
HETATM    6  C   UNL     1       7.222  10.435  22.045  0.00  0.00     0.091 A 
ENDROOT
BRANCH   3   7
HETATM    7  C   UNL     1       8.710  13.027  25.129  0.00  0.00     0.172 A 
HETATM    8  N   UNL     1       9.777  12.687  25.804  0.00  0.00    -0.151 NA
HETATM    9  N   UNL     1       9.991  13.744  26.640  0.00  0.00    -0.226 N 
HETATM   10  H   UNL     1      10.724  13.760  27.338  0.00  0.00     0.194 HD
HETATM   11  C   UNL     1       8.992  14.708  26.500  0.00  0.00     0.349 A 
HETATM   12  O   UNL     1       8.868  15.686  27.223  0.00  0.00    -0.245 OA
HETATM   13  N   UNL     1       8.186  14.248  25.480  0.00  0.00    -0.243 N 
BRANCH  13  14
HETATM   14  C   UNL     1       6.988  14.869  25.067  0.00  0.00     0.067 A 
HETATM   15  C   UNL     1       5.894  14.894  25.951  0.00  0.00     0.032 A 
HETATM   16  C   UNL     1       4.625  15.267  25.510  0.00  0.00     0.002 A 
HETATM   17  C   UNL     1       4.431  15.633  24.183  0.00  0.00     0.002 A 
HETATM   18  C   UNL     1       5.519  15.691  23.313  0.00  0.00     0.026 A 
HETATM   19  C   UNL     1       6.800  15.333  23.751  0.00  0.00     0.061 A 
HETATM   20 CL   UNL     1       8.050  15.324  22.557  0.00  0.00    -0.082 Cl
ENDBRANCH  13  14
ENDBRANCH   3   7
BRANCH   4  21
HETATM   21  O   UNL     1      10.192  12.412  22.718  0.00  0.00    -0.360 OA
HETATM   22  H   UNL     1      10.626  11.919  21.987  0.00  0.00     0.217 HD
ENDBRANCH   4  21
BRANCH   1  23
HETATM   23  S   UNL     1       4.693  10.264  23.236  0.00  0.00     0.246 S 
HETATM   24  O   UNL     1       4.048  10.592  21.983  0.00  0.00    -0.206 OA
HETATM   25  O   UNL     1       4.124  10.757  24.472  0.00  0.00    -0.206 OA
BRANCH  23  26
HETATM   26  N   UNL     1       4.878   8.542  23.368  0.00  0.00    -0.207 NA
HETATM   27  C   UNL     1       3.606   7.838  23.018  0.00  0.00     0.130 C 
BRANCH  26  28
HETATM   28  C   UNL     1       5.574   7.962  24.579  0.00  0.00     0.065 C 
HETATM   29  C   UNL     1       4.728   6.843  25.206  0.00  0.00     0.027 C 
HETATM   30  C   UNL     1       6.934   7.341  24.248  0.00  0.00     0.027 C 
ENDBRANCH  26  28
ENDBRANCH  23  26
ENDBRANCH   1  23
BRANCH   6  31
HETATM   31  O   UNL     1       6.788   9.621  21.045  0.00  0.00    -0.359 OA
HETATM   32  H   UNL     1       7.387   8.863  20.944  0.00  0.00     0.217 HD
ENDBRANCH   6  31
TORSDOF 7
ENDMDL
