MODEL 1
REMARK VINA RESULT:    -9.441      0.000      0.000
REMARK INTER + INTRA:         -14.339
REMARK INTER:                 -12.345
REMARK INTRA:                  -1.994
REMARK UNBOUND:                -1.310
REMARK  7 active torsions:
REMARK  status: ('A' for Active; 'I' for Inactive)
REMARK    1  A    between atoms: C_8  and  C_9 
REMARK    2  A    between atoms: C_14  and  N_15 
REMARK       I    between atoms: N_15  and  C_17 
REMARK    3  A    between atoms: C_17  and  C_19 
REMARK    4  A    between atoms: C_20  and  O_22 
REMARK    5  A    between atoms: C_26  and  C_30 
REMARK    6  A    between atoms: C_30  and  C_31 
REMARK    7  A    between atoms: C_31  and  C_32 
ROOT
HETATM    1  C   UNL     1      10.172  11.583  25.751  0.00  0.00     0.066 A 
HETATM    2  C   UNL     1      10.516  10.699  24.716  0.00  0.00     0.083 A 
HETATM    3  C   UNL     1       9.550  10.127  23.874  0.00  0.00     0.069 A 
HETATM    4  C   UNL     1       8.829  12.021  25.834  0.00  0.00     0.035 A 
HETATM    5  C   UNL     1       7.850  11.496  24.961  0.00  0.00     0.019 A 
HETATM    6  C   UNL     1       8.229  10.534  24.035  0.00  0.00     0.065 A 
HETATM    7  C   UNL     1       6.464  11.698  24.709  0.00  0.00     0.067 A 
HETATM    8  N   UNL     1       6.005  10.872  23.760  0.00  0.00    -0.178 NA
HETATM    9  N   UNL     1       7.086  10.187  23.375  0.00  0.00    -0.277 N 
HETATM   10  H   UNL     1       6.968   9.498  22.643  0.00  0.00     0.189 HD
ENDROOT
BRANCH   1  11
HETATM   11  C   UNL     1      11.119  12.208  26.742  0.00  0.00     0.260 C 
HETATM   12  N   UNL     1      11.511  13.559  26.695  0.00  0.00    -0.318 N 
HETATM   13  C   UNL     1      12.371  14.046  27.773  0.00  0.00     0.159 C 
HETATM   14  O   UNL     1      11.521  11.464  27.641  0.00  0.00    -0.267 OA
BRANCH  12  15
HETATM   15  C   UNL     1      11.237  14.473  25.651  0.00  0.00     0.037 C 
HETATM   16  C   UNL     1      12.104  14.614  24.576  0.00  0.00     0.030 C 
HETATM   17  C   UNL     1      11.675  15.265  23.418  0.00  0.00     0.010 C 
HETATM   18  C   UNL     1      10.345  15.707  23.288  0.00  0.00    -0.054 C 
HETATM   19  C   UNL     1       9.571  15.760  24.458  0.00  0.00     0.010 C 
HETATM   20  C   UNL     1      10.017  15.157  25.639  0.00  0.00     0.030 C 
BRANCH  18  21
HETATM   21  C   UNL     1       9.752  16.042  21.913  0.00  0.00     0.022 C 
HETATM   22  C   UNL     1       8.322  15.496  21.693  0.00  0.00     0.037 C 
HETATM   23  C   UNL     1       8.276  13.967  21.709  0.00  0.00     0.235 C 
HETATM   24  N   UNL     1       9.224  13.373  20.697  0.00  0.00    -0.075 N 
HETATM   25  C   UNL     1      10.611  13.962  20.736  0.00  0.00     0.235 C 
HETATM   26  C   UNL     1       8.656  13.271  19.313  0.00  0.00     0.269 C 
HETATM   27  H   UNL     1       9.332  12.398  21.009  0.00  0.00     0.279 HD
HETATM   28  C   UNL     1      10.584  15.481  20.730  0.00  0.00     0.037 C 
ENDBRANCH  18  21
ENDBRANCH  12  15
ENDBRANCH   1  11
BRANCH   2  29
HETATM   29  O   UNL     1      11.799  10.355  24.375  0.00  0.00    -0.360 OA
HETATM   30  H   UNL     1      11.800   9.397  24.188  0.00  0.00     0.217 HD
ENDBRANCH   2  29
BRANCH   7  31
HETATM   31  C   UNL     1       5.522  12.662  25.356  0.00  0.00     0.063 C 
BRANCH  31  32
HETATM   32  C   UNL     1       5.862  14.125  25.039  0.00  0.00     0.014 C 
BRANCH  32  33
HETATM   33  C   UNL     1       4.674  14.988  24.537  0.00  0.00    -0.051 C 
HETATM   34  C   UNL     1       4.130  15.886  25.658  0.00  0.00     0.014 C 
HETATM   35  C   UNL     1       5.183  15.886  23.393  0.00  0.00     0.014 C 
HETATM   36  C   UNL     1       3.536  14.107  23.994  0.00  0.00     0.014 C 
ENDBRANCH  32  33
ENDBRANCH  31  32
ENDBRANCH   7  31
TORSDOF 7
ENDMDL
MODEL 2
REMARK VINA RESULT:    -9.046      2.326      5.239
REMARK INTER + INTRA:         -13.794
REMARK INTER:                 -11.805
REMARK INTRA:                  -1.989
REMARK UNBOUND:                -1.310
REMARK  7 active torsions:
REMARK  status: ('A' for Active; 'I' for Inactive)
REMARK    1  A    between atoms: C_8  and  C_9 
REMARK    2  A    between atoms: C_14  and  N_15 
REMARK       I    between atoms: N_15  and  C_17 
REMARK    3  A    between atoms: C_17  and  C_19 
REMARK    4  A    between atoms: C_20  and  O_22 
REMARK    5  A    between atoms: C_26  and  C_30 
REMARK    6  A    between atoms: C_30  and  C_31 
REMARK    7  A    between atoms: C_31  and  C_32 
ROOT
HETATM    1  C   UNL     1       7.036  11.425  21.474  0.00  0.00     0.066 A 
HETATM    2  C   UNL     1       8.016  11.639  20.493  0.00  0.00     0.083 A 
HETATM    3  C   UNL     1       8.467  12.925  20.160  0.00  0.00     0.069 A 
HETATM    4  C   UNL     1       6.615  12.533  22.248  0.00  0.00     0.035 A 
HETATM    5  C   UNL     1       7.097  13.829  21.962  0.00  0.00     0.019 A 
HETATM    6  C   UNL     1       7.975  13.995  20.901  0.00  0.00     0.065 A 
HETATM    7  C   UNL     1       6.955  15.137  22.507  0.00  0.00     0.067 A 
HETATM    8  N   UNL     1       7.626  16.049  21.793  0.00  0.00    -0.178 NA
HETATM    9  N   UNL     1       8.228  15.335  20.837  0.00  0.00    -0.277 N 
HETATM   10  H   UNL     1       8.809  15.834  20.174  0.00  0.00     0.189 HD
ENDROOT
BRANCH   1  11
HETATM   11  C   UNL     1       6.444  10.098  21.870  0.00  0.00     0.260 C 
HETATM   12  N   UNL     1       6.685   9.479  23.111  0.00  0.00    -0.318 N 
HETATM   13  C   UNL     1       5.975   8.230  23.388  0.00  0.00     0.159 C 
HETATM   14  O   UNL     1       5.690   9.579  21.041  0.00  0.00    -0.267 OA
BRANCH  12  15
HETATM   15  C   UNL     1       7.626   9.893  24.083  0.00  0.00     0.037 C 
HETATM   16  C   UNL     1       8.944   9.459  24.035  0.00  0.00     0.030 C 
HETATM   17  C   UNL     1       9.918  10.115  24.789  0.00  0.00     0.010 C 
HETATM   18  C   UNL     1       9.603  11.266  25.534  0.00  0.00    -0.054 C 
HETATM   19  C   UNL     1       8.242  11.538  25.747  0.00  0.00     0.010 C 
HETATM   20  C   UNL     1       7.255  10.848  25.035  0.00  0.00     0.030 C 
BRANCH  18  21
HETATM   21  C   UNL     1      10.702  12.219  26.024  0.00  0.00     0.022 C 
HETATM   22  C   UNL     1      10.281  13.707  26.048  0.00  0.00     0.037 C 
HETATM   23  C   UNL     1       9.975  14.246  24.650  0.00  0.00     0.235 C 
HETATM   24  N   UNL     1      11.140  14.047  23.712  0.00  0.00    -0.075 N 
HETATM   25  C   UNL     1      11.717  12.655  23.737  0.00  0.00     0.235 C 
HETATM   26  C   UNL     1      12.178  15.128  23.787  0.00  0.00     0.269 C 
HETATM   27  H   UNL     1      10.720  14.151  22.778  0.00  0.00     0.279 HD
HETATM   28  C   UNL     1      11.986  12.178  25.155  0.00  0.00     0.037 C 
ENDBRANCH  18  21
ENDBRANCH  12  15
ENDBRANCH   1  11
BRANCH   2  29
HETATM   29  O   UNL     1       8.675  10.645  19.817  0.00  0.00    -0.360 OA
HETATM   30  H   UNL     1       9.184  11.072  19.101  0.00  0.00     0.217 HD
ENDBRANCH   2  29
BRANCH   7  31
HETATM   31  C   UNL     1       6.176  15.576  23.706  0.00  0.00     0.063 C 
BRANCH  31  32
HETATM   32  C   UNL     1       4.670  15.679  23.428  0.00  0.00     0.014 C 
BRANCH  32  33
HETATM   33  C   UNL     1       3.751  15.058  24.514  0.00  0.00    -0.051 C 
HETATM   34  C   UNL     1       2.356  14.753  23.948  0.00  0.00     0.014 C 
HETATM   35  C   UNL     1       4.389  13.736  24.984  0.00  0.00     0.014 C 
HETATM   36  C   UNL     1       3.615  15.991  25.728  0.00  0.00     0.014 C 
ENDBRANCH  32  33
ENDBRANCH  31  32
ENDBRANCH   7  31
TORSDOF 7
ENDMDL
MODEL 3
REMARK VINA RESULT:    -8.845      1.771      4.246
REMARK INTER + INTRA:         -13.516
REMARK INTER:                 -11.378
REMARK INTRA:                  -2.138
REMARK UNBOUND:                -1.310
REMARK  7 active torsions:
REMARK  status: ('A' for Active; 'I' for Inactive)
REMARK    1  A    between atoms: C_8  and  C_9 
REMARK    2  A    between atoms: C_14  and  N_15 
REMARK       I    between atoms: N_15  and  C_17 
REMARK    3  A    between atoms: C_17  and  C_19 
REMARK    4  A    between atoms: C_20  and  O_22 
REMARK    5  A    between atoms: C_26  and  C_30 
REMARK    6  A    between atoms: C_30  and  C_31 
REMARK    7  A    between atoms: C_31  and  C_32 
ROOT
HETATM    1  C   UNL     1       8.838  10.824  24.904  0.00  0.00     0.066 A 
HETATM    2  C   UNL     1      10.165  11.051  25.299  0.00  0.00     0.083 A 
HETATM    3  C   UNL     1      10.581  12.274  25.848  0.00  0.00     0.069 A 
HETATM    4  C   UNL     1       7.873  11.810  25.218  0.00  0.00     0.035 A 
HETATM    5  C   UNL     1       8.262  13.028  25.817  0.00  0.00     0.019 A 
HETATM    6  C   UNL     1       9.609  13.243  26.076  0.00  0.00     0.065 A 
HETATM    7  C   UNL     1       7.619  14.202  26.303  0.00  0.00     0.067 A 
HETATM    8  N   UNL     1       8.503  15.102  26.752  0.00  0.00    -0.178 NA
HETATM    9  N   UNL     1       9.686  14.500  26.604  0.00  0.00    -0.277 N 
HETATM   10  H   UNL     1      10.512  15.008  26.895  0.00  0.00     0.189 HD
ENDROOT
BRANCH   1  11
HETATM   11  C   UNL     1       8.301   9.574  24.258  0.00  0.00     0.260 C 
HETATM   12  N   UNL     1       7.914   9.504  22.906  0.00  0.00    -0.318 N 
HETATM   13  C   UNL     1       7.489   8.200  22.397  0.00  0.00     0.159 C 
HETATM   14  O   UNL     1       8.243   8.578  24.985  0.00  0.00    -0.267 OA
BRANCH  12  15
HETATM   15  C   UNL     1       7.800  10.593  22.011  0.00  0.00     0.037 C 
HETATM   16  C   UNL     1       6.689  11.425  22.032  0.00  0.00     0.030 C 
HETATM   17  C   UNL     1       6.733  12.659  21.383  0.00  0.00     0.010 C 
HETATM   18  C   UNL     1       7.919  13.116  20.778  0.00  0.00    -0.054 C 
HETATM   19  C   UNL     1       8.937  12.171  20.572  0.00  0.00     0.010 C 
HETATM   20  C   UNL     1       8.876  10.911  21.175  0.00  0.00     0.030 C 
BRANCH  18  21
HETATM   21  C   UNL     1       8.112  14.598  20.429  0.00  0.00     0.022 C 
HETATM   22  C   UNL     1       9.577  14.989  20.127  0.00  0.00     0.037 C 
HETATM   23  C   UNL     1      10.488  14.814  21.342  0.00  0.00     0.235 C 
HETATM   24  N   UNL     1       9.976  15.586  22.534  0.00  0.00    -0.075 N 
HETATM   25  C   UNL     1       8.508  15.384  22.812  0.00  0.00     0.235 C 
HETATM   26  C   UNL     1      10.397  17.025  22.558  0.00  0.00     0.269 C 
HETATM   27  H   UNL     1      10.466  15.156  23.331  0.00  0.00     0.279 HD
HETATM   28  C   UNL     1       7.664  15.560  21.561  0.00  0.00     0.037 C 
ENDBRANCH  18  21
ENDBRANCH  12  15
ENDBRANCH   1  11
BRANCH   2  29
HETATM   29  O   UNL     1      11.164  10.112  25.262  0.00  0.00    -0.360 OA
HETATM   30  H   UNL     1      11.931  10.487  25.736  0.00  0.00     0.217 HD
ENDBRANCH   2  29
BRANCH   7  31
HETATM   31  C   UNL     1       6.160  14.522  26.352  0.00  0.00     0.063 C 
BRANCH  31  32
HETATM   32  C   UNL     1       5.445  14.225  25.026  0.00  0.00     0.014 C 
BRANCH  32  33
HETATM   33  C   UNL     1       4.263  15.171  24.684  0.00  0.00    -0.051 C 
HETATM   34  C   UNL     1       4.663  16.186  23.602  0.00  0.00     0.014 C 
HETATM   35  C   UNL     1       3.102  14.314  24.146  0.00  0.00     0.014 C 
HETATM   36  C   UNL     1       3.774  15.924  25.932  0.00  0.00     0.014 C 
ENDBRANCH  32  33
ENDBRANCH  31  32
ENDBRANCH   7  31
TORSDOF 7
ENDMDL
MODEL 4
REMARK VINA RESULT:    -8.828      5.737      9.325
REMARK INTER + INTRA:         -13.493
REMARK INTER:                 -11.363
REMARK INTRA:                  -2.130
REMARK UNBOUND:                -1.310
REMARK  7 active torsions:
REMARK  status: ('A' for Active; 'I' for Inactive)
REMARK    1  A    between atoms: C_8  and  C_9 
REMARK    2  A    between atoms: C_14  and  N_15 
REMARK       I    between atoms: N_15  and  C_17 
REMARK    3  A    between atoms: C_17  and  C_19 
REMARK    4  A    between atoms: C_20  and  O_22 
REMARK    5  A    between atoms: C_26  and  C_30 
REMARK    6  A    between atoms: C_30  and  C_31 
REMARK    7  A    between atoms: C_31  and  C_32 
ROOT
HETATM    1  C   UNL     1      -1.359  10.712  24.797  0.00  0.00     0.066 A 
HETATM    2  C   UNL     1      -1.942  10.833  26.068  0.00  0.00     0.083 A 
HETATM    3  C   UNL     1      -1.544  10.033  27.149  0.00  0.00     0.069 A 
HETATM    4  C   UNL     1      -0.233   9.866  24.660  0.00  0.00     0.035 A 
HETATM    5  C   UNL     1       0.217   9.090  25.751  0.00  0.00     0.019 A 
HETATM    6  C   UNL     1      -0.476   9.163  26.951  0.00  0.00     0.065 A 
HETATM    7  C   UNL     1       1.286   8.189  26.017  0.00  0.00     0.067 A 
HETATM    8  N   UNL     1       1.214   7.684  27.255  0.00  0.00    -0.178 NA
HETATM    9  N   UNL     1       0.149   8.286  27.791  0.00  0.00    -0.277 N 
HETATM   10  H   UNL     1      -0.090   8.055  28.747  0.00  0.00     0.189 HD
ENDROOT
BRANCH   1  11
HETATM   11  C   UNL     1      -1.746  11.479  23.561  0.00  0.00     0.260 C 
HETATM   12  N   UNL     1      -0.901  12.411  22.928  0.00  0.00    -0.318 N 
HETATM   13  C   UNL     1      -1.382  13.018  21.687  0.00  0.00     0.159 C 
HETATM   14  O   UNL     1      -2.862  11.221  23.098  0.00  0.00    -0.267 OA
BRANCH  12  15
HETATM   15  C   UNL     1       0.330  12.895  23.427  0.00  0.00     0.037 C 
HETATM   16  C   UNL     1       1.536  12.509  22.858  0.00  0.00     0.030 C 
HETATM   17  C   UNL     1       2.698  13.228  23.139  0.00  0.00     0.010 C 
HETATM   18  C   UNL     1       2.655  14.394  23.925  0.00  0.00    -0.054 C 
HETATM   19  C   UNL     1       1.484  14.623  24.665  0.00  0.00     0.010 C 
HETATM   20  C   UNL     1       0.329  13.872  24.428  0.00  0.00     0.030 C 
BRANCH  18  21
HETATM   21  C   UNL     1       3.810  15.405  23.909  0.00  0.00     0.022 C 
HETATM   22  C   UNL     1       5.072  14.909  23.165  0.00  0.00     0.037 C 
HETATM   23  C   UNL     1       5.705  13.693  23.842  0.00  0.00     0.235 C 
HETATM   24  N   UNL     1       6.027  13.970  25.290  0.00  0.00    -0.075 N 
HETATM   25  C   UNL     1       4.896  14.602  26.060  0.00  0.00     0.235 C 
HETATM   26  C   UNL     1       7.349  14.646  25.505  0.00  0.00     0.269 C 
HETATM   27  H   UNL     1       6.144  13.032  25.697  0.00  0.00     0.279 HD
HETATM   28  C   UNL     1       4.306  15.795  25.326  0.00  0.00     0.037 C 
ENDBRANCH  18  21
ENDBRANCH  12  15
ENDBRANCH   1  11
BRANCH   2  29
HETATM   29  O   UNL     1      -2.891  11.764  26.408  0.00  0.00    -0.360 OA
HETATM   30  H   UNL     1      -2.419  12.592  26.621  0.00  0.00     0.217 HD
ENDBRANCH   2  29
BRANCH   7  31
HETATM   31  C   UNL     1       2.402   7.762  25.118  0.00  0.00     0.063 C 
BRANCH  31  32
HETATM   32  C   UNL     1       3.774   8.244  25.608  0.00  0.00     0.014 C 
BRANCH  32  33
HETATM   33  C   UNL     1       4.391   9.419  24.803  0.00  0.00    -0.051 C 
HETATM   34  C   UNL     1       5.900   9.214  24.595  0.00  0.00     0.014 C 
HETATM   35  C   UNL     1       3.709   9.466  23.422  0.00  0.00     0.014 C 
HETATM   36  C   UNL     1       4.153  10.764  25.509  0.00  0.00     0.014 C 
ENDBRANCH  32  33
ENDBRANCH  31  32
ENDBRANCH   7  31
TORSDOF 7
ENDMDL
MODEL 5
REMARK VINA RESULT:    -8.694      2.351      6.083
REMARK INTER + INTRA:         -13.308
REMARK INTER:                 -11.524
REMARK INTRA:                  -1.785
REMARK UNBOUND:                -1.310
REMARK  7 active torsions:
REMARK  status: ('A' for Active; 'I' for Inactive)
REMARK    1  A    between atoms: C_8  and  C_9 
REMARK    2  A    between atoms: C_14  and  N_15 
REMARK       I    between atoms: N_15  and  C_17 
REMARK    3  A    between atoms: C_17  and  C_19 
REMARK    4  A    between atoms: C_20  and  O_22 
REMARK    5  A    between atoms: C_26  and  C_30 
REMARK    6  A    between atoms: C_30  and  C_31 
REMARK    7  A    between atoms: C_31  and  C_32 
ROOT
HETATM    1  C   UNL     1      10.722  13.445  22.014  0.00  0.00     0.066 A 
HETATM    2  C   UNL     1      11.686  14.426  22.291  0.00  0.00     0.083 A 
HETATM    3  C   UNL     1      12.092  14.723  23.600  0.00  0.00     0.069 A 
HETATM    4  C   UNL     1      10.273  12.633  23.083  0.00  0.00     0.035 A 
HETATM    5  C   UNL     1      10.710  12.882  24.403  0.00  0.00     0.019 A 
HETATM    6  C   UNL     1      11.573  13.945  24.631  0.00  0.00     0.065 A 
HETATM    7  C   UNL     1      10.530  12.294  25.687  0.00  0.00     0.067 A 
HETATM    8  N   UNL     1      11.165  12.985  26.643  0.00  0.00    -0.178 NA
HETATM    9  N   UNL     1      11.781  13.968  25.979  0.00  0.00    -0.277 N 
HETATM   10  H   UNL     1      12.339  14.619  26.517  0.00  0.00     0.189 HD
ENDROOT
BRANCH   1  11
HETATM   11  C   UNL     1      10.177  13.086  20.657  0.00  0.00     0.260 C 
HETATM   12  N   UNL     1       8.857  13.362  20.252  0.00  0.00    -0.318 N 
HETATM   13  C   UNL     1       8.494  13.030  18.874  0.00  0.00     0.159 C 
HETATM   14  O   UNL     1      10.977  12.551  19.883  0.00  0.00    -0.267 OA
BRANCH  12  15
HETATM   15  C   UNL     1       7.812  13.839  21.078  0.00  0.00     0.037 C 
HETATM   16  C   UNL     1       6.875  12.971  21.621  0.00  0.00     0.030 C 
HETATM   17  C   UNL     1       6.062  13.396  22.672  0.00  0.00     0.010 C 
HETATM   18  C   UNL     1       6.233  14.667  23.250  0.00  0.00    -0.054 C 
HETATM   19  C   UNL     1       7.014  15.593  22.540  0.00  0.00     0.010 C 
HETATM   20  C   UNL     1       7.792  15.187  21.451  0.00  0.00     0.030 C 
BRANCH  18  21
HETATM   21  C   UNL     1       5.652  14.995  24.633  0.00  0.00     0.022 C 
HETATM   22  C   UNL     1       5.164  13.757  25.421  0.00  0.00     0.037 C 
HETATM   23  C   UNL     1       3.997  13.052  24.730  0.00  0.00     0.235 C 
HETATM   24  N   UNL     1       2.848  13.997  24.478  0.00  0.00    -0.075 N 
HETATM   25  C   UNL     1       3.256  15.304  23.848  0.00  0.00     0.235 C 
HETATM   26  C   UNL     1       1.921  14.159  25.647  0.00  0.00     0.269 C 
HETATM   27  H   UNL     1       2.287  13.513  23.763  0.00  0.00     0.279 HD
HETATM   28  C   UNL     1       4.426  15.945  24.576  0.00  0.00     0.037 C 
ENDBRANCH  18  21
ENDBRANCH  12  15
ENDBRANCH   1  11
BRANCH   2  29
HETATM   29  O   UNL     1      12.371  15.140  21.341  0.00  0.00    -0.360 OA
HETATM   30  H   UNL     1      11.855  15.949  21.161  0.00  0.00     0.217 HD
ENDBRANCH   2  29
BRANCH   7  31
HETATM   31  C   UNL     1       9.749  11.076  26.063  0.00  0.00     0.063 C 
BRANCH  31  32
HETATM   32  C   UNL     1       9.776   9.997  24.972  0.00  0.00     0.014 C 
BRANCH  32  33
HETATM   33  C   UNL     1       8.410   9.705  24.294  0.00  0.00    -0.051 C 
HETATM   34  C   UNL     1       7.352  10.735  24.718  0.00  0.00     0.014 C 
HETATM   35  C   UNL     1       8.602   9.799  22.768  0.00  0.00     0.014 C 
HETATM   36  C   UNL     1       7.910   8.292  24.635  0.00  0.00     0.014 C 
ENDBRANCH  32  33
ENDBRANCH  31  32
ENDBRANCH   7  31
TORSDOF 7
ENDMDL
MODEL 6
REMARK VINA RESULT:    -8.610      2.312      6.721
REMARK INTER + INTRA:         -13.192
REMARK INTER:                 -11.484
REMARK INTRA:                  -1.708
REMARK UNBOUND:                -1.310
REMARK  7 active torsions:
REMARK  status: ('A' for Active; 'I' for Inactive)
REMARK    1  A    between atoms: C_8  and  C_9 
REMARK    2  A    between atoms: C_14  and  N_15 
REMARK       I    between atoms: N_15  and  C_17 
REMARK    3  A    between atoms: C_17  and  C_19 
REMARK    4  A    between atoms: C_20  and  O_22 
REMARK    5  A    between atoms: C_26  and  C_30 
REMARK    6  A    between atoms: C_30  and  C_31 
REMARK    7  A    between atoms: C_31  and  C_32 
ROOT
HETATM    1  C   UNL     1       8.942  12.278  21.315  0.00  0.00     0.066 A 
HETATM    2  C   UNL     1       8.603  12.855  20.082  0.00  0.00     0.083 A 
HETATM    3  C   UNL     1       8.820  14.214  19.811  0.00  0.00     0.069 A 
HETATM    4  C   UNL     1       9.665  13.066  22.242  0.00  0.00     0.035 A 
HETATM    5  C   UNL     1       9.940  14.424  21.966  0.00  0.00     0.019 A 
HETATM    6  C   UNL     1       9.473  14.971  20.779  0.00  0.00     0.065 A 
HETATM    7  C   UNL     1      10.641  15.493  22.593  0.00  0.00     0.067 A 
HETATM    8  N   UNL     1      10.548  16.628  21.890  0.00  0.00    -0.178 NA
HETATM    9  N   UNL     1       9.843  16.284  20.808  0.00  0.00    -0.277 N 
HETATM   10  H   UNL     1       9.657  17.004  20.120  0.00  0.00     0.189 HD
ENDROOT
BRANCH   1  11
HETATM   11  C   UNL     1       8.704  10.849  21.729  0.00  0.00     0.260 C 
HETATM   12  N   UNL     1       7.522  10.409  22.354  0.00  0.00    -0.318 N 
HETATM   13  C   UNL     1       7.398   8.976  22.622  0.00  0.00     0.159 C 
HETATM   14  O   UNL     1       9.609  10.055  21.456  0.00  0.00    -0.267 OA
BRANCH  12  15
HETATM   15  C   UNL     1       6.478  11.230  22.842  0.00  0.00     0.037 C 
HETATM   16  C   UNL     1       6.631  11.965  24.009  0.00  0.00     0.030 C 
HETATM   17  C   UNL     1       5.739  12.998  24.301  0.00  0.00     0.010 C 
HETATM   18  C   UNL     1       4.735  13.366  23.387  0.00  0.00    -0.054 C 
HETATM   19  C   UNL     1       4.462  12.469  22.341  0.00  0.00     0.010 C 
HETATM   20  C   UNL     1       5.321  11.398  22.075  0.00  0.00     0.030 C 
BRANCH  18  21
HETATM   21  C   UNL     1       4.025  14.723  23.491  0.00  0.00     0.022 C 
HETATM   22  C   UNL     1       4.795  15.774  24.324  0.00  0.00     0.037 C 
HETATM   23  C   UNL     1       4.938  15.363  25.790  0.00  0.00     0.235 C 
HETATM   24  N   UNL     1       3.597  15.077  26.418  0.00  0.00    -0.075 N 
HETATM   25  C   UNL     1       2.711  14.177  25.595  0.00  0.00     0.235 C 
HETATM   26  C   UNL     1       2.893  16.296  26.939  0.00  0.00     0.269 C 
HETATM   27  H   UNL     1       3.834  14.532  27.259  0.00  0.00     0.279 HD
HETATM   28  C   UNL     1       2.623  14.636  24.149  0.00  0.00     0.037 C 
ENDBRANCH  18  21
ENDBRANCH  12  15
ENDBRANCH   1  11
BRANCH   2  29
HETATM   29  O   UNL     1       8.099  12.166  19.009  0.00  0.00    -0.360 OA
HETATM   30  H   UNL     1       7.770  12.828  18.370  0.00  0.00     0.217 HD
ENDBRANCH   2  29
BRANCH   7  31
HETATM   31  C   UNL     1      11.410  15.488  23.875  0.00  0.00     0.063 C 
BRANCH  31  32
HETATM   32  C   UNL     1      10.530  15.168  25.091  0.00  0.00     0.014 C 
BRANCH  32  33
HETATM   33  C   UNL     1      10.983  13.946  25.934  0.00  0.00    -0.051 C 
HETATM   34  C   UNL     1       9.923  12.835  25.911  0.00  0.00     0.014 C 
HETATM   35  C   UNL     1      12.284  13.394  25.320  0.00  0.00     0.014 C 
HETATM   36  C   UNL     1      11.266  14.349  27.391  0.00  0.00     0.014 C 
ENDBRANCH  32  33
ENDBRANCH  31  32
ENDBRANCH   7  31
TORSDOF 7
ENDMDL
MODEL 7
REMARK VINA RESULT:    -8.584      2.634      5.797
REMARK INTER + INTRA:         -13.156
REMARK INTER:                 -11.137
REMARK INTRA:                  -2.019
REMARK UNBOUND:                -1.310
REMARK  7 active torsions:
REMARK  status: ('A' for Active; 'I' for Inactive)
REMARK    1  A    between atoms: C_8  and  C_9 
REMARK    2  A    between atoms: C_14  and  N_15 
REMARK       I    between atoms: N_15  and  C_17 
REMARK    3  A    between atoms: C_17  and  C_19 
REMARK    4  A    between atoms: C_20  and  O_22 
REMARK    5  A    between atoms: C_26  and  C_30 
REMARK    6  A    between atoms: C_30  and  C_31 
REMARK    7  A    between atoms: C_31  and  C_32 
ROOT
HETATM    1  C   UNL     1       9.209  14.971  22.931  0.00  0.00     0.066 A 
HETATM    2  C   UNL     1      10.349  15.253  23.700  0.00  0.00     0.083 A 
HETATM    3  C   UNL     1      10.295  15.365  25.097  0.00  0.00     0.069 A 
HETATM    4  C   UNL     1       8.013  14.640  23.610  0.00  0.00     0.035 A 
HETATM    5  C   UNL     1       7.952  14.696  25.020  0.00  0.00     0.019 A 
HETATM    6  C   UNL     1       9.080  15.097  25.721  0.00  0.00     0.065 A 
HETATM    7  C   UNL     1       6.992  14.412  26.033  0.00  0.00     0.067 A 
HETATM    8  N   UNL     1       7.462  14.692  27.255  0.00  0.00    -0.178 NA
HETATM    9  N   UNL     1       8.715  15.100  27.037  0.00  0.00    -0.277 N 
HETATM   10  H   UNL     1       9.272  15.360  27.842  0.00  0.00     0.189 HD
ENDROOT
BRANCH   1  11
HETATM   11  C   UNL     1       9.145  14.883  21.429  0.00  0.00     0.260 C 
HETATM   12  N   UNL     1       8.653  13.761  20.737  0.00  0.00    -0.318 N 
HETATM   13  C   UNL     1       8.575  13.852  19.279  0.00  0.00     0.159 C 
HETATM   14  O   UNL     1       9.528  15.885  20.817  0.00  0.00    -0.267 OA
BRANCH  12  15
HETATM   15  C   UNL     1       8.317  12.510  21.305  0.00  0.00     0.037 C 
HETATM   16  C   UNL     1       9.290  11.692  21.864  0.00  0.00     0.030 C 
HETATM   17  C   UNL     1       8.915  10.634  22.693  0.00  0.00     0.010 C 
HETATM   18  C   UNL     1       7.567  10.432  23.043  0.00  0.00    -0.054 C 
HETATM   19  C   UNL     1       6.601  11.118  22.289  0.00  0.00     0.010 C 
HETATM   20  C   UNL     1       6.971  12.144  21.415  0.00  0.00     0.030 C 
BRANCH  18  21
HETATM   21  C   UNL     1       7.182   9.559  24.245  0.00  0.00     0.022 C 
HETATM   22  C   UNL     1       7.867   8.173  24.263  0.00  0.00     0.037 C 
HETATM   23  C   UNL     1       7.451   7.304  23.076  0.00  0.00     0.235 C 
HETATM   24  N   UNL     1       5.952   7.145  23.004  0.00  0.00    -0.075 N 
HETATM   25  C   UNL     1       5.191   8.440  23.135  0.00  0.00     0.235 C 
HETATM   26  C   UNL     1       5.411   6.042  23.865  0.00  0.00     0.269 C 
HETATM   27  H   UNL     1       5.787   6.828  22.038  0.00  0.00     0.279 HD
HETATM   28  C   UNL     1       5.662   9.258  24.325  0.00  0.00     0.037 C 
ENDBRANCH  18  21
ENDBRANCH  12  15
ENDBRANCH   1  11
BRANCH   2  29
HETATM   29  O   UNL     1      11.619  15.379  23.198  0.00  0.00    -0.360 OA
HETATM   30  H   UNL     1      11.556  15.289  22.228  0.00  0.00     0.217 HD
ENDBRANCH   2  29
BRANCH   7  31
HETATM   31  C   UNL     1       5.602  13.883  25.888  0.00  0.00     0.063 C 
BRANCH  31  32
HETATM   32  C   UNL     1       4.572  14.989  25.622  0.00  0.00     0.014 C 
BRANCH  32  33
HETATM   33  C   UNL     1       3.989  15.019  24.184  0.00  0.00    -0.051 C 
HETATM   34  C   UNL     1       2.454  15.076  24.211  0.00  0.00     0.014 C 
HETATM   35  C   UNL     1       4.513  16.285  23.479  0.00  0.00     0.014 C 
HETATM   36  C   UNL     1       4.438  13.791  23.375  0.00  0.00     0.014 C 
ENDBRANCH  32  33
ENDBRANCH  31  32
ENDBRANCH   7  31
TORSDOF 7
ENDMDL
MODEL 8
REMARK VINA RESULT:    -8.573      3.069      5.992
REMARK INTER + INTRA:         -13.141
REMARK INTER:                 -11.329
REMARK INTRA:                  -1.812
REMARK UNBOUND:                -1.310
REMARK  7 active torsions:
REMARK  status: ('A' for Active; 'I' for Inactive)
REMARK    1  A    between atoms: C_8  and  C_9 
REMARK    2  A    between atoms: C_14  and  N_15 
REMARK       I    between atoms: N_15  and  C_17 
REMARK    3  A    between atoms: C_17  and  C_19 
REMARK    4  A    between atoms: C_20  and  O_22 
REMARK    5  A    between atoms: C_26  and  C_30 
REMARK    6  A    between atoms: C_30  and  C_31 
REMARK    7  A    between atoms: C_31  and  C_32 
ROOT
HETATM    1  C   UNL     1       5.481  12.169  21.988  0.00  0.00     0.066 A 
HETATM    2  C   UNL     1       6.631  12.961  21.858  0.00  0.00     0.083 A 
HETATM    3  C   UNL     1       6.676  14.289  22.308  0.00  0.00     0.069 A 
HETATM    4  C   UNL     1       4.397  12.687  22.735  0.00  0.00     0.035 A 
HETATM    5  C   UNL     1       4.442  14.005  23.242  0.00  0.00     0.019 A 
HETATM    6  C   UNL     1       5.561  14.782  22.978  0.00  0.00     0.065 A 
HETATM    7  C   UNL     1       3.613  14.843  24.040  0.00  0.00     0.067 A 
HETATM    8  N   UNL     1       4.139  16.065  24.189  0.00  0.00    -0.178 NA
HETATM    9  N   UNL     1       5.306  15.999  23.543  0.00  0.00    -0.277 N 
HETATM   10  H   UNL     1       5.887  16.828  23.536  0.00  0.00     0.189 HD
ENDROOT
BRANCH   1  11
HETATM   11  C   UNL     1       5.308  10.757  21.493  0.00  0.00     0.260 C 
HETATM   12  N   UNL     1       5.952   9.647  22.073  0.00  0.00    -0.318 N 
HETATM   13  C   UNL     1       5.624   8.326  21.537  0.00  0.00     0.159 C 
HETATM   14  O   UNL     1       4.528  10.612  20.547  0.00  0.00    -0.267 OA
BRANCH  12  15
HETATM   15  C   UNL     1       6.965   9.689  23.059  0.00  0.00     0.037 C 
HETATM   16  C   UNL     1       8.282   9.380  22.747  0.00  0.00     0.030 C 
HETATM   17  C   UNL     1       9.305   9.732  23.629  0.00  0.00     0.010 C 
HETATM   18  C   UNL     1       9.033  10.473  24.793  0.00  0.00    -0.054 C 
HETATM   19  C   UNL     1       7.690  10.566  25.194  0.00  0.00     0.010 C 
HETATM   20  C   UNL     1       6.659  10.166  24.338  0.00  0.00     0.030 C 
BRANCH  18  21
HETATM   21  C   UNL     1      10.151  11.209  25.545  0.00  0.00     0.022 C 
HETATM   22  C   UNL     1       9.727  12.581  26.120  0.00  0.00     0.037 C 
HETATM   23  C   UNL     1       9.353  13.579  25.024  0.00  0.00     0.235 C 
HETATM   24  N   UNL     1      10.472  13.753  24.027  0.00  0.00    -0.075 N 
HETATM   25  C   UNL     1      11.055  12.456  23.526  0.00  0.00     0.235 C 
HETATM   26  C   UNL     1      11.509  14.755  24.439  0.00  0.00     0.269 C 
HETATM   27  H   UNL     1      10.008  14.176  23.211  0.00  0.00     0.279 HD
HETATM   28  C   UNL     1      11.392  11.508  24.664  0.00  0.00     0.037 C 
ENDBRANCH  18  21
ENDBRANCH  12  15
ENDBRANCH   1  11
BRANCH   2  29
HETATM   29  O   UNL     1       7.830  12.522  21.355  0.00  0.00    -0.360 OA
HETATM   30  H   UNL     1       7.929  11.587  21.619  0.00  0.00     0.217 HD
ENDBRANCH   2  29
BRANCH   7  31
HETATM   31  C   UNL     1       2.296  14.531  24.676  0.00  0.00     0.063 C 
BRANCH  31  32
HETATM   32  C   UNL     1       1.133  14.564  23.675  0.00  0.00     0.014 C 
BRANCH  32  33
HETATM   33  C   UNL     1       0.317  13.248  23.563  0.00  0.00    -0.051 C 
HETATM   34  C   UNL     1       1.126  12.051  24.085  0.00  0.00     0.014 C 
HETATM   35  C   UNL     1      -0.952  13.395  24.425  0.00  0.00     0.014 C 
HETATM   36  C   UNL     1      -0.109  12.979  22.111  0.00  0.00     0.014 C 
ENDBRANCH  32  33
ENDBRANCH  31  32
ENDBRANCH   7  31
TORSDOF 7
ENDMDL
