REMARK  7 active torsions:
REMARK  status: ('A' for Active; 'I' for Inactive)
REMARK    1  A    between atoms: C_8  and  C_9 
REMARK    2  A    between atoms: C_14  and  N_15 
REMARK       I    between atoms: N_15  and  C_17 
REMARK    3  A    between atoms: C_17  and  C_19 
REMARK    4  A    between atoms: C_20  and  O_22 
REMARK    5  A    between atoms: C_26  and  C_30 
REMARK    6  A    between atoms: C_30  and  C_31 
REMARK    7  A    between atoms: C_31  and  C_32 
ROOT
HETATM    1  C   UNL     1       0.061  -1.130   8.093  0.00  0.00     0.066 A 
HETATM    2  C   UNL     1       1.028  -0.305   8.687  0.00  0.00     0.083 A 
HETATM    3  C   UNL     1       1.338  -0.385  10.053  0.00  0.00     0.069 A 
HETATM    4  C   UNL     1      -0.495  -2.172   8.873  0.00  0.00     0.035 A 
HETATM    5  C   UNL     1      -0.157  -2.302  10.238  0.00  0.00     0.019 A 
HETATM    6  C   UNL     1       0.716  -1.381  10.800  0.00  0.00     0.065 A 
HETATM    7  C   UNL     1      -0.455  -3.198  11.304  0.00  0.00     0.067 A 
HETATM    8  N   UNL     1       0.122  -2.816  12.450  0.00  0.00    -0.178 NA
HETATM    9  N   UNL     1       0.817  -1.725  12.117  0.00  0.00    -0.277 N 
HETATM   10  H   UNL     1       1.350  -1.267  12.846  0.00  0.00     0.189 HD
ENDROOT
BRANCH   1  11
HETATM   11  C   UNL     1      -0.385  -1.090   6.655  0.00  0.00     0.260 C 
HETATM   12  N   UNL     1      -0.568   0.104   5.932  0.00  0.00    -0.318 N 
HETATM   13  C   UNL     1      -0.924  -0.016   4.518  0.00  0.00     0.159 C 
HETATM   14  O   UNL     1      -0.557  -2.188   6.117  0.00  0.00    -0.267 OA
BRANCH  12  15
HETATM   15  C   UNL     1      -0.540   1.415   6.462  0.00  0.00     0.037 C 
HETATM   16  C   UNL     1      -1.268   1.745   7.597  0.00  0.00     0.030 C 
HETATM   17  C   UNL     1      -0.985   2.926   8.284  0.00  0.00     0.010 C 
HETATM   18  C   UNL     1       0.087   3.750   7.895  0.00  0.00    -0.054 C 
HETATM   19  C   UNL     1       0.646   3.517   6.628  0.00  0.00     0.010 C 
HETATM   20  C   UNL     1       0.327   2.362   5.907  0.00  0.00     0.030 C 
BRANCH  18  21
HETATM   21  C   UNL     1       0.664   4.805   8.849  0.00  0.00     0.022 C 
HETATM   22  C   UNL     1       2.183   5.042   8.682  0.00  0.00     0.037 C 
HETATM   23  C   UNL     1       3.006   3.800   9.026  0.00  0.00     0.235 C 
HETATM   24  N   UNL     1       2.704   3.303  10.418  0.00  0.00    -0.075 N 
HETATM   25  C   UNL     1       1.232   3.188  10.723  0.00  0.00     0.235 C 
HETATM   26  C   UNL     1       3.487   3.991  11.497  0.00  0.00     0.269 C 
HETATM   27  H   UNL     1       3.058   2.336  10.413  0.00  0.00     0.279 HD
HETATM   28  C   UNL     1       0.474   4.450  10.347  0.00  0.00     0.037 C 
ENDBRANCH  18  21
ENDBRANCH  12  15
ENDBRANCH   1  11
BRANCH   2  29
HETATM   29  O   UNL     1       1.807   0.599   8.011  0.00  0.00    -0.360 OA
HETATM   30  H   UNL     1       1.662   0.448   7.057  0.00  0.00     0.217 HD
ENDBRANCH   2  29
BRANCH   7  31
HETATM   31  C   UNL     1      -1.299  -4.432  11.286  0.00  0.00     0.063 C 
BRANCH  31  32
HETATM   32  C   UNL     1      -0.716  -5.534  10.391  0.00  0.00     0.014 C 
BRANCH  32  33
HETATM   33  C   UNL     1      -1.548  -6.843  10.324  0.00  0.00    -0.051 C 
HETATM   34  C   UNL     1      -2.958  -6.574   9.776  0.00  0.00     0.014 C 
HETATM   35  C   UNL     1      -0.831  -7.820   9.373  0.00  0.00     0.014 C 
HETATM   36  C   UNL     1      -1.658  -7.504  11.708  0.00  0.00     0.014 C 
ENDBRANCH  32  33
ENDBRANCH  31  32
ENDBRANCH   7  31
TORSDOF 7
