MODEL 1
REMARK VINA RESULT:    -9.647      0.000      0.000
REMARK INTER + INTRA:         -14.543
REMARK INTER:                 -12.938
REMARK INTRA:                  -1.604
REMARK UNBOUND:                -1.512
REMARK  7 active torsions:
REMARK  status: ('A' for Active; 'I' for Inactive)
REMARK    1  A    between atoms: C_7  and  C_8 
REMARK    2  A    between atoms: C_8  and  C_9 
REMARK    3  A    between atoms: C_16  and  C_20 
REMARK    4  A    between atoms: C_17  and  O_19 
REMARK       I    between atoms: C_20  and  N_22 
REMARK    5  A    between atoms: N_22  and  C_24 
REMARK    6  A    between atoms: C_27  and  N_30 
REMARK    7  A    between atoms: C_35  and  O_36 
ROOT
HETATM    1  C   UNL     1       0.287  14.926  22.813  0.00  0.00     0.071 A 
HETATM    2  N   UNL     1       1.273  15.685  23.317  0.00  0.00    -0.178 NA
HETATM    3  N   UNL     1       1.002  15.741  24.632  0.00  0.00    -0.277 N 
HETATM    4  H   UNL     1       1.603  16.303  25.223  0.00  0.00     0.189 HD
HETATM    5  C   UNL     1      -0.587  14.452  23.838  0.00  0.00     0.020 A 
HETATM    6  C   UNL     1      -0.145  15.087  24.994  0.00  0.00     0.065 A 
HETATM    7  C   UNL     1      -1.744  13.648  23.905  0.00  0.00     0.035 C 
HETATM    8  C   UNL     1      -2.429  13.528  25.128  0.00  0.00     0.066 C 
HETATM    9  C   UNL     1      -2.027  14.306  26.224  0.00  0.00     0.083 C 
HETATM   10  C   UNL     1      -0.844  15.050  26.202  0.00  0.00     0.069 C 
ENDROOT
BRANCH   8  11
HETATM   11  C   UNL     1      -3.612  12.624  25.249  0.00  0.00     0.260 C 
HETATM   12  O   UNL     1      -4.684  13.184  25.501  0.00  0.00    -0.267 OA
HETATM   13  N   UNL     1      -3.491  11.232  25.020  0.00  0.00    -0.318 N 
HETATM   14  C   UNL     1      -4.714  10.470  24.819  0.00  0.00     0.159 C 
BRANCH  13  15
HETATM   15  C   UNL     1      -2.264  10.496  25.080  0.00  0.00     0.037 C 
HETATM   16  C   UNL     1      -1.552  10.202  23.922  0.00  0.00     0.032 C 
HETATM   17  C   UNL     1      -0.459   9.335  23.956  0.00  0.00     0.031 C 
HETATM   18  C   UNL     1      -0.016   8.713  25.124  0.00  0.00     0.032 C 
HETATM   19  C   UNL     1      -0.644   9.145  26.303  0.00  0.00     0.031 C 
HETATM   20  C   UNL     1      -1.741  10.026  26.290  0.00  0.00     0.032 C 
BRANCH  18  21
HETATM   21  N   UNL     1       0.921   7.701  25.119  0.00  0.00    -0.351 N 
HETATM   22  C   UNL     1       2.336   7.962  25.453  0.00  0.00     0.152 C 
HETATM   23  C   UNL     1       2.827   6.899  26.449  0.00  0.00     0.187 C 
HETATM   24  O   UNL     1       2.696   5.575  25.906  0.00  0.00    -0.385 OA
HETATM   25  C   UNL     1       1.330   5.315  25.549  0.00  0.00     0.221 C 
HETATM   26  C   UNL     1       0.746   6.347  24.553  0.00  0.00     0.244 C 
BRANCH  26  27
HETATM   27  O   UNL     1      -0.608   6.002  24.321  0.00  0.00    -0.374 OA
HETATM   28  H   UNL     1      -0.899   6.581  23.594  0.00  0.00     0.212 HD
ENDBRANCH  26  27
ENDBRANCH  18  21
ENDBRANCH  13  15
ENDBRANCH   8  11
BRANCH   9  29
HETATM   29  O   UNL     1      -2.779  14.426  27.364  0.00  0.00    -0.360 OA
HETATM   30  H   UNL     1      -3.443  15.130  27.194  0.00  0.00     0.217 HD
ENDBRANCH   9  29
BRANCH   1  31
HETATM   31  C   UNL     1       0.043  14.899  21.345  0.00  0.00     0.100 C 
BRANCH  31  32
HETATM   32  C   UNL     1      -1.292  15.505  20.994  0.00  0.00    -0.052 A 
HETATM   33  C   UNL     1      -2.411  14.673  20.824  0.00  0.00     0.014 A 
HETATM   34  C   UNL     1      -3.562  15.139  20.174  0.00  0.00    -0.061 A 
HETATM   35  C   UNL     1      -4.672  14.198  19.805  0.00  0.00     0.048 C 
HETATM   36  C   UNL     1      -3.615  16.474  19.760  0.00  0.00     0.007 A 
HETATM   37  C   UNL     1      -2.537  17.329  19.996  0.00  0.00     0.001 A 
HETATM   38  C   UNL     1      -1.382  16.850  20.613  0.00  0.00     0.007 A 
ENDBRANCH  31  32
ENDBRANCH   1  31
TORSDOF 7
ENDMDL
MODEL 2
REMARK VINA RESULT:    -9.546      0.928      1.365
REMARK INTER + INTRA:         -14.406
REMARK INTER:                 -12.405
REMARK INTRA:                  -2.001
REMARK UNBOUND:                -1.512
REMARK  7 active torsions:
REMARK  status: ('A' for Active; 'I' for Inactive)
REMARK    1  A    between atoms: C_7  and  C_8 
REMARK    2  A    between atoms: C_8  and  C_9 
REMARK    3  A    between atoms: C_16  and  C_20 
REMARK    4  A    between atoms: C_17  and  O_19 
REMARK       I    between atoms: C_20  and  N_22 
REMARK    5  A    between atoms: N_22  and  C_24 
REMARK    6  A    between atoms: C_27  and  N_30 
REMARK    7  A    between atoms: C_35  and  O_36 
ROOT
HETATM    1  C   UNL     1       0.258  14.725  22.812  0.00  0.00     0.071 A 
HETATM    2  N   UNL     1       1.266  15.493  23.255  0.00  0.00    -0.178 NA
HETATM    3  N   UNL     1       1.033  15.610  24.573  0.00  0.00    -0.277 N 
HETATM    4  H   UNL     1       1.658  16.190  25.121  0.00  0.00     0.189 HD
HETATM    5  C   UNL     1      -0.592  14.309  23.881  0.00  0.00     0.020 A 
HETATM    6  C   UNL     1      -0.110  14.987  24.995  0.00  0.00     0.065 A 
HETATM    7  C   UNL     1      -1.757  13.523  24.016  0.00  0.00     0.035 C 
HETATM    8  C   UNL     1      -2.408  13.466  25.262  0.00  0.00     0.066 C 
HETATM    9  C   UNL     1      -1.966  14.285  26.310  0.00  0.00     0.083 C 
HETATM   10  C   UNL     1      -0.775  15.012  26.223  0.00  0.00     0.069 C 
ENDROOT
BRANCH   8  11
HETATM   11  C   UNL     1      -3.598  12.584  25.455  0.00  0.00     0.260 C 
HETATM   12  O   UNL     1      -4.686  13.166  25.516  0.00  0.00    -0.267 OA
HETATM   13  N   UNL     1      -3.460  11.175  25.495  0.00  0.00    -0.318 N 
HETATM   14  C   UNL     1      -4.665  10.373  25.344  0.00  0.00     0.159 C 
BRANCH  13  15
HETATM   15  C   UNL     1      -2.243  10.479  25.784  0.00  0.00     0.037 C 
HETATM   16  C   UNL     1      -1.489   9.909  24.763  0.00  0.00     0.032 C 
HETATM   17  C   UNL     1      -0.405   9.079  25.053  0.00  0.00     0.031 C 
HETATM   18  C   UNL     1      -0.013   8.766  26.355  0.00  0.00     0.032 C 
HETATM   19  C   UNL     1      -0.683   9.475  27.365  0.00  0.00     0.031 C 
HETATM   20  C   UNL     1      -1.771  10.323  27.092  0.00  0.00     0.032 C 
BRANCH  18  21
HETATM   21  N   UNL     1       0.916   7.786  26.637  0.00  0.00    -0.351 N 
HETATM   22  C   UNL     1       0.501   6.432  27.059  0.00  0.00     0.152 C 
HETATM   23  C   UNL     1       1.287   5.385  26.255  0.00  0.00     0.187 C 
HETATM   24  O   UNL     1       2.703   5.537  26.444  0.00  0.00    -0.385 OA
HETATM   25  C   UNL     1       3.120   6.857  26.064  0.00  0.00     0.221 C 
HETATM   26  C   UNL     1       2.370   7.982  26.821  0.00  0.00     0.244 C 
BRANCH  26  27
HETATM   27  O   UNL     1       2.840   9.222  26.325  0.00  0.00    -0.374 OA
HETATM   28  H   UNL     1       2.195   9.883  26.633  0.00  0.00     0.212 HD
ENDBRANCH  26  27
ENDBRANCH  18  21
ENDBRANCH  13  15
ENDBRANCH   8  11
BRANCH   9  29
HETATM   29  O   UNL     1      -2.684  14.465  27.465  0.00  0.00    -0.360 OA
HETATM   30  H   UNL     1      -2.476  15.368  27.791  0.00  0.00     0.217 HD
ENDBRANCH   9  29
BRANCH   1  31
HETATM   31  C   UNL     1      -0.028  14.638  21.354  0.00  0.00     0.100 C 
BRANCH  31  32
HETATM   32  C   UNL     1      -1.312  15.343  20.998  0.00  0.00    -0.052 A 
HETATM   33  C   UNL     1      -2.478  14.593  20.768  0.00  0.00     0.014 A 
HETATM   34  C   UNL     1      -3.580  15.159  20.111  0.00  0.00    -0.061 A 
HETATM   35  C   UNL     1      -4.738  14.308  19.679  0.00  0.00     0.048 C 
HETATM   36  C   UNL     1      -3.536  16.510  19.752  0.00  0.00     0.007 A 
HETATM   37  C   UNL     1      -2.411  17.282  20.048  0.00  0.00     0.001 A 
HETATM   38  C   UNL     1      -1.306  16.705  20.671  0.00  0.00     0.007 A 
ENDBRANCH  31  32
ENDBRANCH   1  31
TORSDOF 7
ENDMDL
MODEL 3
REMARK VINA RESULT:    -9.264      3.378      5.992
REMARK INTER + INTRA:         -14.026
REMARK INTER:                 -12.620
REMARK INTRA:                  -1.406
REMARK UNBOUND:                -1.512
REMARK  7 active torsions:
REMARK  status: ('A' for Active; 'I' for Inactive)
REMARK    1  A    between atoms: C_7  and  C_8 
REMARK    2  A    between atoms: C_8  and  C_9 
REMARK    3  A    between atoms: C_16  and  C_20 
REMARK    4  A    between atoms: C_17  and  O_19 
REMARK       I    between atoms: C_20  and  N_22 
REMARK    5  A    between atoms: N_22  and  C_24 
REMARK    6  A    between atoms: C_27  and  N_30 
REMARK    7  A    between atoms: C_35  and  O_36 
ROOT
HETATM    1  C   UNL     1      -2.637  12.012  22.680  0.00  0.00     0.071 A 
HETATM    2  N   UNL     1      -3.096  10.794  22.353  0.00  0.00    -0.178 NA
HETATM    3  N   UNL     1      -3.366  10.217  23.536  0.00  0.00    -0.277 N 
HETATM    4  H   UNL     1      -3.695   9.259  23.539  0.00  0.00     0.189 HD
HETATM    5  C   UNL     1      -2.672  12.224  24.092  0.00  0.00     0.020 A 
HETATM    6  C   UNL     1      -3.058  10.996  24.619  0.00  0.00     0.065 A 
HETATM    7  C   UNL     1      -2.332  13.267  24.979  0.00  0.00     0.035 C 
HETATM    8  C   UNL     1      -2.372  13.032  26.366  0.00  0.00     0.066 C 
HETATM    9  C   UNL     1      -2.624  11.736  26.839  0.00  0.00     0.083 C 
HETATM   10  C   UNL     1      -3.034  10.708  25.985  0.00  0.00     0.069 C 
ENDROOT
BRANCH   8  11
HETATM   11  C   UNL     1      -2.093  14.137  27.330  0.00  0.00     0.260 C 
HETATM   12  O   UNL     1      -2.805  14.153  28.340  0.00  0.00    -0.267 OA
HETATM   13  N   UNL     1      -1.033  15.050  27.105  0.00  0.00    -0.318 N 
HETATM   14  C   UNL     1      -0.603  15.875  28.223  0.00  0.00     0.159 C 
BRANCH  13  15
HETATM   15  C   UNL     1      -0.427  15.303  25.833  0.00  0.00     0.037 C 
HETATM   16  C   UNL     1      -1.162  15.858  24.792  0.00  0.00     0.032 C 
HETATM   17  C   UNL     1      -0.629  15.938  23.504  0.00  0.00     0.031 C 
HETATM   18  C   UNL     1       0.646  15.474  23.177  0.00  0.00     0.032 C 
HETATM   19  C   UNL     1       1.428  15.067  24.269  0.00  0.00     0.031 C 
HETATM   20  C   UNL     1       0.912  14.989  25.576  0.00  0.00     0.032 C 
BRANCH  18  21
HETATM   21  N   UNL     1       1.084  15.360  21.875  0.00  0.00    -0.351 N 
HETATM   22  C   UNL     1       1.087  16.520  20.960  0.00  0.00     0.152 C 
HETATM   23  C   UNL     1       2.440  16.593  20.234  0.00  0.00     0.187 C 
HETATM   24  O   UNL     1       2.698  15.390  19.491  0.00  0.00    -0.385 OA
HETATM   25  C   UNL     1       2.673  14.249  20.361  0.00  0.00     0.221 C 
HETATM   26  C   UNL     1       1.344  14.101  21.144  0.00  0.00     0.244 C 
BRANCH  26  27
HETATM   27  O   UNL     1       1.467  12.972  21.990  0.00  0.00    -0.374 OA
HETATM   28  H   UNL     1       0.850  13.134  22.726  0.00  0.00     0.212 HD
ENDBRANCH  26  27
ENDBRANCH  18  21
ENDBRANCH  13  15
ENDBRANCH   8  11
BRANCH   9  29
HETATM   29  O   UNL     1      -2.445  11.378  28.150  0.00  0.00    -0.360 OA
HETATM   30  H   UNL     1      -1.826  12.033  28.542  0.00  0.00     0.217 HD
ENDBRANCH   9  29
BRANCH   1  31
HETATM   31  C   UNL     1      -1.922  12.836  21.668  0.00  0.00     0.100 C 
BRANCH  31  32
HETATM   32  C   UNL     1      -2.794  13.948  21.142  0.00  0.00    -0.052 A 
HETATM   33  C   UNL     1      -2.227  14.962  20.351  0.00  0.00     0.014 A 
HETATM   34  C   UNL     1      -2.906  16.169  20.135  0.00  0.00    -0.061 A 
HETATM   35  C   UNL     1      -2.222  17.328  19.472  0.00  0.00     0.048 C 
HETATM   36  C   UNL     1      -4.195  16.327  20.656  0.00  0.00     0.007 A 
HETATM   37  C   UNL     1      -4.796  15.293  21.376  0.00  0.00     0.001 A 
HETATM   38  C   UNL     1      -4.102  14.107  21.616  0.00  0.00     0.007 A 
ENDBRANCH  31  32
ENDBRANCH   1  31
TORSDOF 7
ENDMDL
MODEL 4
REMARK VINA RESULT:    -9.182      0.893      1.448
REMARK INTER + INTRA:         -13.915
REMARK INTER:                 -11.785
REMARK INTRA:                  -2.130
REMARK UNBOUND:                -1.512
REMARK  7 active torsions:
REMARK  status: ('A' for Active; 'I' for Inactive)
REMARK    1  A    between atoms: C_7  and  C_8 
REMARK    2  A    between atoms: C_8  and  C_9 
REMARK    3  A    between atoms: C_16  and  C_20 
REMARK    4  A    between atoms: C_17  and  O_19 
REMARK       I    between atoms: C_20  and  N_22 
REMARK    5  A    between atoms: N_22  and  C_24 
REMARK    6  A    between atoms: C_27  and  N_30 
REMARK    7  A    between atoms: C_35  and  O_36 
ROOT
HETATM    1  C   UNL     1       0.289  15.506  23.615  0.00  0.00     0.071 A 
HETATM    2  N   UNL     1       1.262  16.100  24.325  0.00  0.00    -0.178 NA
HETATM    3  N   UNL     1       0.956  15.811  25.601  0.00  0.00    -0.277 N 
HETATM    4  H   UNL     1       1.542  16.195  26.334  0.00  0.00     0.189 HD
HETATM    5  C   UNL     1      -0.611  14.786  24.457  0.00  0.00     0.020 A 
HETATM    6  C   UNL     1      -0.199  15.092  25.750  0.00  0.00     0.065 A 
HETATM    7  C   UNL     1      -1.769  14.000  24.282  0.00  0.00     0.035 C 
HETATM    8  C   UNL     1      -2.486  13.568  25.414  0.00  0.00     0.066 C 
HETATM    9  C   UNL     1      -2.112  14.029  26.684  0.00  0.00     0.083 C 
HETATM   10  C   UNL     1      -0.929  14.744  26.888  0.00  0.00     0.069 C 
ENDROOT
BRANCH   8  11
HETATM   11  C   UNL     1      -3.671  12.672  25.263  0.00  0.00     0.260 C 
HETATM   12  O   UNL     1      -4.767  13.200  25.480  0.00  0.00    -0.267 OA
HETATM   13  N   UNL     1      -3.520  11.331  24.835  0.00  0.00    -0.318 N 
HETATM   14  C   UNL     1      -4.711  10.626  24.387  0.00  0.00     0.159 C 
BRANCH  13  15
HETATM   15  C   UNL     1      -2.304  10.578  24.913  0.00  0.00     0.037 C 
HETATM   16  C   UNL     1      -1.537  10.343  23.777  0.00  0.00     0.032 C 
HETATM   17  C   UNL     1      -0.455   9.463  23.815  0.00  0.00     0.031 C 
HETATM   18  C   UNL     1      -0.077   8.769  24.965  0.00  0.00     0.032 C 
HETATM   19  C   UNL     1      -0.760   9.140  26.134  0.00  0.00     0.031 C 
HETATM   20  C   UNL     1      -1.848  10.033  26.118  0.00  0.00     0.032 C 
BRANCH  18  21
HETATM   21  N   UNL     1       0.850   7.749  24.947  0.00  0.00    -0.351 N 
HETATM   22  C   UNL     1       2.266   7.990  25.291  0.00  0.00     0.152 C 
HETATM   23  C   UNL     1       2.743   6.908  26.272  0.00  0.00     0.187 C 
HETATM   24  O   UNL     1       2.601   5.593  25.708  0.00  0.00    -0.385 OA
HETATM   25  C   UNL     1       1.234   5.352  25.342  0.00  0.00     0.221 C 
HETATM   26  C   UNL     1       0.664   6.405  24.359  0.00  0.00     0.244 C 
BRANCH  26  27
HETATM   27  O   UNL     1      -0.693   6.078  24.117  0.00  0.00    -0.374 OA
HETATM   28  H   UNL     1      -1.082   5.931  24.997  0.00  0.00     0.212 HD
ENDBRANCH  26  27
ENDBRANCH  18  21
ENDBRANCH  13  15
ENDBRANCH   8  11
BRANCH   9  29
HETATM   29  O   UNL     1      -2.893  13.850  27.797  0.00  0.00    -0.360 OA
HETATM   30  H   UNL     1      -3.818  14.053  27.531  0.00  0.00     0.217 HD
ENDBRANCH   9  29
BRANCH   1  31
HETATM   31  C   UNL     1       0.084  15.867  22.186  0.00  0.00     0.100 C 
BRANCH  31  32
HETATM   32  C   UNL     1      -0.603  14.759  21.428  0.00  0.00    -0.052 A 
HETATM   33  C   UNL     1      -1.928  14.930  20.993  0.00  0.00     0.014 A 
HETATM   34  C   UNL     1      -2.705  13.831  20.602  0.00  0.00    -0.061 A 
HETATM   35  C   UNL     1      -4.174  13.982  20.339  0.00  0.00     0.048 C 
HETATM   36  C   UNL     1      -2.120  12.560  20.578  0.00  0.00     0.007 A 
HETATM   37  C   UNL     1      -0.780  12.393  20.934  0.00  0.00     0.001 A 
HETATM   38  C   UNL     1      -0.023  13.486  21.353  0.00  0.00     0.007 A 
ENDBRANCH  31  32
ENDBRANCH   1  31
TORSDOF 7
ENDMDL
MODEL 5
REMARK VINA RESULT:    -8.879      2.395      6.219
REMARK INTER + INTRA:         -13.505
REMARK INTER:                 -11.082
REMARK INTRA:                  -2.423
REMARK UNBOUND:                -1.512
REMARK  7 active torsions:
REMARK  status: ('A' for Active; 'I' for Inactive)
REMARK    1  A    between atoms: C_7  and  C_8 
REMARK    2  A    between atoms: C_8  and  C_9 
REMARK    3  A    between atoms: C_16  and  C_20 
REMARK    4  A    between atoms: C_17  and  O_19 
REMARK       I    between atoms: C_20  and  N_22 
REMARK    5  A    between atoms: N_22  and  C_24 
REMARK    6  A    between atoms: C_27  and  N_30 
REMARK    7  A    between atoms: C_35  and  O_36 
ROOT
HETATM    1  C   UNL     1      -3.969  12.137  24.953  0.00  0.00     0.071 A 
HETATM    2  N   UNL     1      -4.599  12.831  25.915  0.00  0.00    -0.178 NA
HETATM    3  N   UNL     1      -3.987  12.448  27.048  0.00  0.00    -0.277 N 
HETATM    4  H   UNL     1      -4.326  12.820  27.927  0.00  0.00     0.189 HD
HETATM    5  C   UNL     1      -2.907  11.347  25.487  0.00  0.00     0.020 A 
HETATM    6  C   UNL     1      -3.016  11.500  26.865  0.00  0.00     0.065 A 
HETATM    7  C   UNL     1      -1.940  10.455  24.977  0.00  0.00     0.035 C 
HETATM    8  C   UNL     1      -1.131   9.731  25.873  0.00  0.00     0.066 C 
HETATM    9  C   UNL     1      -1.383   9.813  27.250  0.00  0.00     0.083 C 
HETATM   10  C   UNL     1      -2.282  10.742  27.780  0.00  0.00     0.069 C 
ENDROOT
BRANCH   8  11
HETATM   11  C   UNL     1      -0.048   8.838  25.364  0.00  0.00     0.260 C 
HETATM   12  O   UNL     1       0.023   7.729  25.904  0.00  0.00    -0.267 OA
HETATM   13  N   UNL     1       0.782   9.240  24.289  0.00  0.00    -0.318 N 
HETATM   14  C   UNL     1       1.575   8.215  23.627  0.00  0.00     0.159 C 
BRANCH  13  15
HETATM   15  C   UNL     1       0.987  10.595  23.875  0.00  0.00     0.037 C 
HETATM   16  C   UNL     1       1.630  11.505  24.707  0.00  0.00     0.032 C 
HETATM   17  C   UNL     1       1.671  12.862  24.387  0.00  0.00     0.031 C 
HETATM   18  C   UNL     1       1.080  13.392  23.238  0.00  0.00     0.032 C 
HETATM   19  C   UNL     1       0.578  12.441  22.335  0.00  0.00     0.031 C 
HETATM   20  C   UNL     1       0.537  11.067  22.637  0.00  0.00     0.032 C 
BRANCH  18  21
HETATM   21  N   UNL     1       0.938  14.748  23.033  0.00  0.00    -0.351 N 
HETATM   22  C   UNL     1       2.029  15.556  22.451  0.00  0.00     0.152 C 
HETATM   23  C   UNL     1       1.460  16.457  21.343  0.00  0.00     0.187 C 
HETATM   24  O   UNL     1       0.434  17.325  21.852  0.00  0.00    -0.385 OA
HETATM   25  C   UNL     1      -0.623  16.556  22.446  0.00  0.00     0.221 C 
HETATM   26  C   UNL     1      -0.137  15.608  23.571  0.00  0.00     0.244 C 
BRANCH  26  27
HETATM   27  O   UNL     1      -1.261  14.883  24.037  0.00  0.00    -0.374 OA
HETATM   28  H   UNL     1      -1.038  14.621  24.948  0.00  0.00     0.212 HD
ENDBRANCH  26  27
ENDBRANCH  18  21
ENDBRANCH  13  15
ENDBRANCH   8  11
BRANCH   9  29
HETATM   29  O   UNL     1      -0.805   8.966  28.161  0.00  0.00    -0.360 OA
HETATM   30  H   UNL     1       0.160   8.964  27.975  0.00  0.00     0.217 HD
ENDBRANCH   9  29
BRANCH   1  31
HETATM   31  C   UNL     1      -4.570  12.032  23.596  0.00  0.00     0.100 C 
BRANCH  31  32
HETATM   32  C   UNL     1      -3.815  12.864  22.590  0.00  0.00    -0.052 A 
HETATM   33  C   UNL     1      -4.220  14.186  22.336  0.00  0.00     0.014 A 
HETATM   34  C   UNL     1      -3.781  14.865  21.191  0.00  0.00    -0.061 A 
HETATM   35  C   UNL     1      -4.372  16.191  20.810  0.00  0.00     0.048 C 
HETATM   36  C   UNL     1      -2.870  14.236  20.335  0.00  0.00     0.007 A 
HETATM   37  C   UNL     1      -2.403  12.953  20.622  0.00  0.00     0.001 A 
HETATM   38  C   UNL     1      -2.869  12.270  21.745  0.00  0.00     0.007 A 
ENDBRANCH  31  32
ENDBRANCH   1  31
TORSDOF 7
ENDMDL
MODEL 6
REMARK VINA RESULT:    -8.827      2.971      8.252
REMARK INTER + INTRA:         -13.436
REMARK INTER:                 -11.256
REMARK INTRA:                  -2.180
REMARK UNBOUND:                -1.512
REMARK  7 active torsions:
REMARK  status: ('A' for Active; 'I' for Inactive)
REMARK    1  A    between atoms: C_7  and  C_8 
REMARK    2  A    between atoms: C_8  and  C_9 
REMARK    3  A    between atoms: C_16  and  C_20 
REMARK    4  A    between atoms: C_17  and  O_19 
REMARK       I    between atoms: C_20  and  N_22 
REMARK    5  A    between atoms: N_22  and  C_24 
REMARK    6  A    between atoms: C_27  and  N_30 
REMARK    7  A    between atoms: C_35  and  O_36 
ROOT
HETATM    1  C   UNL     1       0.517   9.154  25.228  0.00  0.00     0.071 A 
HETATM    2  N   UNL     1       0.464   8.509  24.052  0.00  0.00    -0.178 NA
HETATM    3  N   UNL     1      -0.594   9.054  23.428  0.00  0.00    -0.277 N 
HETATM    4  H   UNL     1      -0.856   8.689  22.519  0.00  0.00     0.189 HD
HETATM    5  C   UNL     1      -0.493  10.159  25.321  0.00  0.00     0.020 A 
HETATM    6  C   UNL     1      -1.257   9.994  24.170  0.00  0.00     0.065 A 
HETATM    7  C   UNL     1      -0.904  11.112  26.277  0.00  0.00     0.035 C 
HETATM    8  C   UNL     1      -2.081  11.850  26.052  0.00  0.00     0.066 C 
HETATM    9  C   UNL     1      -2.890  11.539  24.950  0.00  0.00     0.083 C 
HETATM   10  C   UNL     1      -2.468  10.654  23.954  0.00  0.00     0.069 C 
ENDROOT
BRANCH   8  11
HETATM   11  C   UNL     1      -2.499  12.919  27.007  0.00  0.00     0.260 C 
HETATM   12  O   UNL     1      -3.338  12.581  27.848  0.00  0.00    -0.267 OA
HETATM   13  N   UNL     1      -1.905  14.204  26.967  0.00  0.00    -0.318 N 
HETATM   14  C   UNL     1      -2.101  15.076  28.115  0.00  0.00     0.159 C 
BRANCH  13  15
HETATM   15  C   UNL     1      -1.219  14.755  25.837  0.00  0.00     0.037 C 
HETATM   16  C   UNL     1      -1.902  15.038  24.659  0.00  0.00     0.032 C 
HETATM   17  C   UNL     1      -1.210  15.402  23.502  0.00  0.00     0.031 C 
HETATM   18  C   UNL     1       0.181  15.501  23.446  0.00  0.00     0.032 C 
HETATM   19  C   UNL     1       0.837  15.369  24.680  0.00  0.00     0.031 C 
HETATM   20  C   UNL     1       0.156  15.012  25.859  0.00  0.00     0.032 C 
BRANCH  18  21
HETATM   21  N   UNL     1       0.868  15.650  22.260  0.00  0.00    -0.351 N 
HETATM   22  C   UNL     1       1.049  16.978  21.638  0.00  0.00     0.152 C 
HETATM   23  C   UNL     1       2.519  17.148  21.221  0.00  0.00     0.187 C 
HETATM   24  O   UNL     1       2.921  16.123  20.297  0.00  0.00    -0.385 OA
HETATM   25  C   UNL     1       2.726  14.823  20.876  0.00  0.00     0.221 C 
HETATM   26  C   UNL     1       1.269  14.567  21.336  0.00  0.00     0.244 C 
BRANCH  26  27
HETATM   27  O   UNL     1       1.224  13.279  21.923  0.00  0.00    -0.374 OA
HETATM   28  H   UNL     1       0.994  12.673  21.196  0.00  0.00     0.212 HD
ENDBRANCH  26  27
ENDBRANCH  18  21
ENDBRANCH  13  15
ENDBRANCH   8  11
BRANCH   9  29
HETATM   29  O   UNL     1      -4.157  12.041  24.795  0.00  0.00    -0.360 OA
HETATM   30  H   UNL     1      -4.644  11.411  24.220  0.00  0.00     0.217 HD
ENDBRANCH   9  29
BRANCH   1  31
HETATM   31  C   UNL     1       1.345   8.612  26.339  0.00  0.00     0.100 C 
BRANCH  31  32
HETATM   32  C   UNL     1       0.492   8.162  27.498  0.00  0.00    -0.052 A 
HETATM   33  C   UNL     1       0.681   8.738  28.766  0.00  0.00     0.014 A 
HETATM   34  C   UNL     1       0.169   8.125  29.918  0.00  0.00    -0.061 A 
HETATM   35  C   UNL     1       0.544   8.620  31.284  0.00  0.00     0.048 C 
HETATM   36  C   UNL     1      -0.601   6.964  29.785  0.00  0.00     0.007 A 
HETATM   37  C   UNL     1      -0.859   6.430  28.521  0.00  0.00     0.001 A 
HETATM   38  C   UNL     1      -0.319   7.026  27.382  0.00  0.00     0.007 A 
ENDBRANCH  31  32
ENDBRANCH   1  31
TORSDOF 7
ENDMDL
MODEL 7
REMARK VINA RESULT:    -8.733      2.228      3.880
REMARK INTER + INTRA:         -13.309
REMARK INTER:                 -12.222
REMARK INTRA:                  -1.087
REMARK UNBOUND:                -1.512
REMARK  7 active torsions:
REMARK  status: ('A' for Active; 'I' for Inactive)
REMARK    1  A    between atoms: C_7  and  C_8 
REMARK    2  A    between atoms: C_8  and  C_9 
REMARK    3  A    between atoms: C_16  and  C_20 
REMARK    4  A    between atoms: C_17  and  O_19 
REMARK       I    between atoms: C_20  and  N_22 
REMARK    5  A    between atoms: N_22  and  C_24 
REMARK    6  A    between atoms: C_27  and  N_30 
REMARK    7  A    between atoms: C_35  and  O_36 
ROOT
HETATM    1  C   UNL     1       0.724  15.122  24.280  0.00  0.00     0.071 A 
HETATM    2  N   UNL     1       0.584  15.967  23.246  0.00  0.00    -0.178 NA
HETATM    3  N   UNL     1      -0.737  15.973  23.006  0.00  0.00    -0.277 N 
HETATM    4  H   UNL     1      -1.081  16.523  22.227  0.00  0.00     0.189 HD
HETATM    5  C   UNL     1      -0.539  14.632  24.731  0.00  0.00     0.020 A 
HETATM    6  C   UNL     1      -1.456  15.133  23.812  0.00  0.00     0.065 A 
HETATM    7  C   UNL     1      -0.996  13.757  25.739  0.00  0.00     0.035 C 
HETATM    8  C   UNL     1      -2.356  13.398  25.774  0.00  0.00     0.066 C 
HETATM    9  C   UNL     1      -3.206  13.812  24.738  0.00  0.00     0.083 C 
HETATM   10  C   UNL     1      -2.794  14.736  23.774  0.00  0.00     0.069 C 
ENDROOT
BRANCH   8  11
HETATM   11  C   UNL     1      -2.885  12.536  26.873  0.00  0.00     0.260 C 
HETATM   12  O   UNL     1      -3.538  13.124  27.741  0.00  0.00    -0.267 OA
HETATM   13  N   UNL     1      -2.689  11.134  26.856  0.00  0.00    -0.318 N 
HETATM   14  C   UNL     1      -3.502  10.326  27.753  0.00  0.00     0.159 C 
BRANCH  13  15
HETATM   15  C   UNL     1      -1.674  10.457  26.105  0.00  0.00     0.037 C 
HETATM   16  C   UNL     1      -1.804  10.280  24.732  0.00  0.00     0.032 C 
HETATM   17  C   UNL     1      -0.912   9.468  24.029  0.00  0.00     0.031 C 
HETATM   18  C   UNL     1       0.144   8.790  24.640  0.00  0.00     0.032 C 
HETATM   19  C   UNL     1       0.353   9.107  25.991  0.00  0.00     0.031 C 
HETATM   20  C   UNL     1      -0.530   9.931  26.714  0.00  0.00     0.032 C 
BRANCH  18  21
HETATM   21  N   UNL     1       0.887   7.829  23.987  0.00  0.00    -0.351 N 
HETATM   22  C   UNL     1       2.162   8.164  23.320  0.00  0.00     0.152 C 
HETATM   23  C   UNL     1       3.229   7.130  23.713  0.00  0.00     0.187 C 
HETATM   24  O   UNL     1       2.826   5.800  23.345  0.00  0.00    -0.385 OA
HETATM   25  C   UNL     1       1.573   5.467  23.963  0.00  0.00     0.221 C 
HETATM   26  C   UNL     1       0.438   6.466  23.628  0.00  0.00     0.244 C 
BRANCH  26  27
HETATM   27  O   UNL     1      -0.721   6.051  24.330  0.00  0.00    -0.374 OA
HETATM   28  H   UNL     1      -1.394   6.727  24.137  0.00  0.00     0.212 HD
ENDBRANCH  26  27
ENDBRANCH  18  21
ENDBRANCH  13  15
ENDBRANCH   8  11
BRANCH   9  29
HETATM   29  O   UNL     1      -4.472  13.311  24.573  0.00  0.00    -0.360 OA
HETATM   30  H   UNL     1      -4.778  13.599  23.684  0.00  0.00     0.217 HD
ENDBRANCH   9  29
BRANCH   1  31
HETATM   31  C   UNL     1       2.069  14.590  24.631  0.00  0.00     0.100 C 
BRANCH  31  32
HETATM   32  C   UNL     1       2.897  14.322  23.400  0.00  0.00    -0.052 A 
HETATM   33  C   UNL     1       4.257  14.679  23.385  0.00  0.00     0.014 A 
HETATM   34  C   UNL     1       4.964  14.768  22.178  0.00  0.00    -0.061 A 
HETATM   35  C   UNL     1       6.347  15.348  22.138  0.00  0.00     0.048 C 
HETATM   36  C   UNL     1       4.318  14.424  20.986  0.00  0.00     0.007 A 
HETATM   37  C   UNL     1       2.990  13.993  21.001  0.00  0.00     0.001 A 
HETATM   38  C   UNL     1       2.283  13.938  22.201  0.00  0.00     0.007 A 
ENDBRANCH  31  32
ENDBRANCH   1  31
TORSDOF 7
ENDMDL
MODEL 8
REMARK VINA RESULT:    -8.733      2.935      7.641
REMARK INTER + INTRA:         -13.308
REMARK INTER:                 -11.745
REMARK INTRA:                  -1.563
REMARK UNBOUND:                -1.512
REMARK  7 active torsions:
REMARK  status: ('A' for Active; 'I' for Inactive)
REMARK    1  A    between atoms: C_7  and  C_8 
REMARK    2  A    between atoms: C_8  and  C_9 
REMARK    3  A    between atoms: C_16  and  C_20 
REMARK    4  A    between atoms: C_17  and  O_19 
REMARK       I    between atoms: C_20  and  N_22 
REMARK    5  A    between atoms: N_22  and  C_24 
REMARK    6  A    between atoms: C_27  and  N_30 
REMARK    7  A    between atoms: C_35  and  O_36 
ROOT
HETATM    1  C   UNL     1       0.190   9.795  26.111  0.00  0.00     0.071 A 
HETATM    2  N   UNL     1       0.275   9.355  27.376  0.00  0.00    -0.178 NA
HETATM    3  N   UNL     1      -0.939   9.611  27.893  0.00  0.00    -0.277 N 
HETATM    4  H   UNL     1      -1.101   9.394  28.869  0.00  0.00     0.189 HD
HETATM    5  C   UNL     1      -1.117  10.285  25.812  0.00  0.00     0.020 A 
HETATM    6  C   UNL     1      -1.793  10.240  27.027  0.00  0.00     0.065 A 
HETATM    7  C   UNL     1      -1.769  10.845  24.693  0.00  0.00     0.035 C 
HETATM    8  C   UNL     1      -3.070  11.361  24.841  0.00  0.00     0.066 C 
HETATM    9  C   UNL     1      -3.646  11.425  26.118  0.00  0.00     0.083 C 
HETATM   10  C   UNL     1      -3.052  10.811  27.224  0.00  0.00     0.069 C 
ENDROOT
BRANCH   8  11
HETATM   11  C   UNL     1      -3.814  11.890  23.659  0.00  0.00     0.260 C 
HETATM   12  O   UNL     1      -4.914  11.367  23.447  0.00  0.00    -0.267 OA
HETATM   13  N   UNL     1      -3.298  12.963  22.894  0.00  0.00    -0.318 N 
HETATM   14  C   UNL     1      -4.207  13.645  21.985  0.00  0.00     0.159 C 
BRANCH  13  15
HETATM   15  C   UNL     1      -1.922  13.359  22.862  0.00  0.00     0.037 C 
HETATM   16  C   UNL     1      -1.458  14.387  23.676  0.00  0.00     0.032 C 
HETATM   17  C   UNL     1      -0.167  14.895  23.519  0.00  0.00     0.031 C 
HETATM   18  C   UNL     1       0.725  14.423  22.556  0.00  0.00     0.032 C 
HETATM   19  C   UNL     1       0.297  13.284  21.855  0.00  0.00     0.031 C 
HETATM   20  C   UNL     1      -0.997  12.751  22.007  0.00  0.00     0.032 C 
BRANCH  18  21
HETATM   21  N   UNL     1       1.911  15.064  22.263  0.00  0.00    -0.351 N 
HETATM   22  C   UNL     1       3.156  14.749  22.994  0.00  0.00     0.152 C 
HETATM   23  C   UNL     1       4.301  14.557  21.987  0.00  0.00     0.187 C 
HETATM   24  O   UNL     1       4.496  15.735  21.187  0.00  0.00    -0.385 OA
HETATM   25  C   UNL     1       3.287  16.072  20.491  0.00  0.00     0.221 C 
HETATM   26  C   UNL     1       2.071  16.275  21.430  0.00  0.00     0.244 C 
BRANCH  26  27
HETATM   27  O   UNL     1       0.944  16.556  20.620  0.00  0.00    -0.374 OA
HETATM   28  H   UNL     1       1.307  16.780  19.744  0.00  0.00     0.212 HD
ENDBRANCH  26  27
ENDBRANCH  18  21
ENDBRANCH  13  15
ENDBRANCH   8  11
BRANCH   9  29
HETATM   29  O   UNL     1      -4.797  12.124  26.378  0.00  0.00    -0.360 OA
HETATM   30  H   UNL     1      -4.571  13.078  26.310  0.00  0.00     0.217 HD
ENDBRANCH   9  29
BRANCH   1  31
HETATM   31  C   UNL     1       1.426   9.992  25.306  0.00  0.00     0.100 C 
BRANCH  31  32
HETATM   32  C   UNL     1       1.975   8.681  24.803  0.00  0.00    -0.052 A 
HETATM   33  C   UNL     1       1.129   7.786  24.125  0.00  0.00     0.014 A 
HETATM   34  C   UNL     1       1.492   6.445  23.950  0.00  0.00    -0.061 A 
HETATM   35  C   UNL     1       0.509   5.444  23.417  0.00  0.00     0.048 C 
HETATM   36  C   UNL     1       2.749   6.018  24.394  0.00  0.00     0.007 A 
HETATM   37  C   UNL     1       3.627   6.920  24.997  0.00  0.00     0.001 A 
HETATM   38  C   UNL     1       3.246   8.245  25.198  0.00  0.00     0.007 A 
ENDBRANCH  31  32
ENDBRANCH   1  31
TORSDOF 7
ENDMDL
MODEL 9
REMARK VINA RESULT:    -8.526      2.123      3.878
REMARK INTER + INTRA:         -13.028
REMARK INTER:                 -11.516
REMARK INTRA:                  -1.512
REMARK UNBOUND:                -1.512
REMARK  7 active torsions:
REMARK  status: ('A' for Active; 'I' for Inactive)
REMARK    1  A    between atoms: C_7  and  C_8 
REMARK    2  A    between atoms: C_8  and  C_9 
REMARK    3  A    between atoms: C_16  and  C_20 
REMARK    4  A    between atoms: C_17  and  O_19 
REMARK       I    between atoms: C_20  and  N_22 
REMARK    5  A    between atoms: N_22  and  C_24 
REMARK    6  A    between atoms: C_27  and  N_30 
REMARK    7  A    between atoms: C_35  and  O_36 
ROOT
HETATM    1  C   UNL     1      -0.887  16.137  22.031  0.00  0.00     0.071 A 
HETATM    2  N   UNL     1      -0.803  16.200  20.692  0.00  0.00    -0.178 NA
HETATM    3  N   UNL     1      -1.531  15.153  20.269  0.00  0.00    -0.277 N 
HETATM    4  H   UNL     1      -1.581  14.974  19.273  0.00  0.00     0.189 HD
HETATM    5  C   UNL     1      -1.727  15.063  22.453  0.00  0.00     0.020 A 
HETATM    6  C   UNL     1      -2.046  14.387  21.280  0.00  0.00     0.065 A 
HETATM    7  C   UNL     1      -2.171  14.533  23.683  0.00  0.00     0.035 C 
HETATM    8  C   UNL     1      -2.900  13.330  23.692  0.00  0.00     0.066 C 
HETATM    9  C   UNL     1      -3.066  12.614  22.497  0.00  0.00     0.083 C 
HETATM   10  C   UNL     1      -2.701  13.154  21.261  0.00  0.00     0.069 C 
ENDROOT
BRANCH   8  11
HETATM   11  C   UNL     1      -3.448  12.785  24.970  0.00  0.00     0.260 C 
HETATM   12  O   UNL     1      -4.374  13.434  25.469  0.00  0.00    -0.267 OA
HETATM   13  N   UNL     1      -2.963  11.570  25.511  0.00  0.00    -0.318 N 
HETATM   14  C   UNL     1      -3.754  10.929  26.551  0.00  0.00     0.159 C 
BRANCH  13  15
HETATM   15  C   UNL     1      -1.698  10.979  25.194  0.00  0.00     0.037 C 
HETATM   16  C   UNL     1      -1.608   9.638  24.836  0.00  0.00     0.032 C 
HETATM   17  C   UNL     1      -0.365   9.016  24.704  0.00  0.00     0.031 C 
HETATM   18  C   UNL     1       0.845   9.677  24.920  0.00  0.00     0.032 C 
HETATM   19  C   UNL     1       0.737  11.063  25.122  0.00  0.00     0.031 C 
HETATM   20  C   UNL     1      -0.506  11.709  25.249  0.00  0.00     0.032 C 
BRANCH  18  21
HETATM   21  N   UNL     1       2.051   9.014  24.997  0.00  0.00    -0.351 N 
HETATM   22  C   UNL     1       3.124   9.473  25.903  0.00  0.00     0.152 C 
HETATM   23  C   UNL     1       3.681   8.270  26.682  0.00  0.00     0.187 C 
HETATM   24  O   UNL     1       4.197   7.266  25.792  0.00  0.00    -0.385 OA
HETATM   25  C   UNL     1       3.173   6.829  24.885  0.00  0.00     0.221 C 
HETATM   26  C   UNL     1       2.545   7.981  24.062  0.00  0.00     0.244 C 
BRANCH  26  27
HETATM   27  O   UNL     1       1.529   7.424  23.247  0.00  0.00    -0.374 OA
HETATM   28  H   UNL     1       1.810   7.599  22.332  0.00  0.00     0.212 HD
ENDBRANCH  26  27
ENDBRANCH  18  21
ENDBRANCH  13  15
ENDBRANCH   8  11
BRANCH   9  29
HETATM   29  O   UNL     1      -3.549  11.331  22.462  0.00  0.00    -0.360 OA
HETATM   30  H   UNL     1      -4.054  11.240  21.624  0.00  0.00     0.217 HD
ENDBRANCH   9  29
BRANCH   1  31
HETATM   31  C   UNL     1       0.053  16.924  22.875  0.00  0.00     0.100 C 
BRANCH  31  32
HETATM   32  C   UNL     1       1.250  16.103  23.284  0.00  0.00    -0.052 A 
HETATM   33  C   UNL     1       2.269  15.846  22.352  0.00  0.00     0.014 A 
HETATM   34  C   UNL     1       3.206  14.827  22.573  0.00  0.00    -0.061 A 
HETATM   35  C   UNL     1       4.161  14.412  21.492  0.00  0.00     0.048 C 
HETATM   36  C   UNL     1       3.161  14.112  23.775  0.00  0.00     0.007 A 
HETATM   37  C   UNL     1       2.199  14.414  24.740  0.00  0.00     0.001 A 
HETATM   38  C   UNL     1       1.250  15.407  24.500  0.00  0.00     0.007 A 
ENDBRANCH  31  32
ENDBRANCH   1  31
TORSDOF 7
ENDMDL
