MODEL 1
REMARK minimizedAffinity -7.41713476
REMARK minimizedRMSD -1
REMARK  7 active torsions:
REMARK  status: ('A' for Active; 'I' for Inactive)
REMARK    1  A    between atoms: C_2  and  N_4 
REMARK    2  A    between atoms: N_4  and  S_6 
REMARK    3  A    between atoms: S_6  and  C_9 
REMARK    4  A    between atoms: C_11  and  C_12 
REMARK    5  A    between atoms: N_17  and  C_18 
REMARK    6  A    between atoms: C_25  and  O_26 
REMARK    7  A    between atoms: C_28  and  O_29 
ROOT
HETATM    1  C   UNL     1       1.684   7.376  26.138  0.00  0.00     0.113 A 
HETATM    2  C   UNL     1       2.738   7.513  25.211  0.00  0.00     0.042 A 
HETATM    3  C   UNL     1       2.568   7.271  23.834  0.00  0.00     0.023 A 
HETATM    4  C   UNL     1       1.306   6.818  23.423  0.00  0.00     0.078 A 
HETATM    5  C   UNL     1       0.259   6.655  24.338  0.00  0.00     0.075 A 
HETATM    6  C   UNL     1       0.439   6.947  25.693  0.00  0.00     0.091 A 
ENDROOT
BRANCH   3   7
HETATM    7  C   UNL     1       3.771   7.519  22.937  0.00  0.00     0.277 C 
HETATM    8  N   UNL     1       3.752   6.640  21.747  0.00  0.00    -0.156 NA
HETATM    9  N   UNL     1       4.001   7.312  20.708  0.00  0.00    -0.093 NA
HETATM   10  C   UNL     1       4.130   8.649  21.038  0.00  0.00     0.369 C 
HETATM   11  O   UNL     1       4.435   9.533  20.250  0.00  0.00    -0.243 OA
HETATM   12  N   UNL     1       3.865   8.821  22.382  0.00  0.00    -0.264 N 
BRANCH  12  13
HETATM   13  C   UNL     1       4.004  10.027  23.099  0.00  0.00     0.080 A 
HETATM   14  C   UNL     1       5.294  10.485  23.414  0.00  0.00     0.033 A 
HETATM   15  C   UNL     1       5.474  11.735  24.008  0.00  0.00     0.002 A 
HETATM   16  C   UNL     1       4.372  12.517  24.348  0.00  0.00     0.003 A 
HETATM   17  C   UNL     1       3.086  12.054  24.079  0.00  0.00     0.044 A 
HETATM   18  C   UNL     1       2.912  10.832  23.437  0.00  0.00     0.143 A 
HETATM   19  F   UNL     1       1.661  10.412  23.195  0.00  0.00    -0.204 F 
ENDBRANCH  12  13
ENDBRANCH   3   7
BRANCH   4  20
HETATM   20  O   UNL     1       0.981   6.515  22.133  0.00  0.00    -0.360 OA
HETATM   21  H   UNL     1       1.695   6.790  21.539  0.00  0.00     0.217 HD
ENDBRANCH   4  20
BRANCH   1  22
HETATM   22  S   UNL     1       1.956   8.029  27.781  0.00  0.00     0.263 S 
HETATM   23  O   UNL     1       0.703   8.055  28.496  0.00  0.00    -0.200 OA
HETATM   24  O   UNL     1       2.666   9.284  27.587  0.00  0.00    -0.200 OA
BRANCH  22  25
HETATM   25  N   UNL     1       3.073   6.959  28.514  0.00  0.00    -0.307 N 
HETATM   26  C   UNL     1       2.759   5.521  28.309  0.00  0.00     0.163 C 
BRANCH  25  27
HETATM   27  C   UNL     1       3.671   7.253  29.856  0.00  0.00     0.087 C 
HETATM   28  C   UNL     1       2.973   6.399  30.934  0.00  0.00     0.032 C 
HETATM   29  C   UNL     1       5.162   6.920  29.955  0.00  0.00     0.032 C 
ENDBRANCH  25  27
ENDBRANCH  22  25
ENDBRANCH   1  22
BRANCH   6  30
HETATM   30  O   UNL     1      -0.604   6.768  26.545  0.00  0.00    -0.359 OA
HETATM   31  H   UNL     1      -1.434   6.704  26.035  0.00  0.00     0.217 HD
ENDBRANCH   6  30
TORSDOF 7
ENDMDL
MODEL 2
REMARK minimizedAffinity -7.13862467
REMARK minimizedRMSD -1
REMARK  7 active torsions:
REMARK  status: ('A' for Active; 'I' for Inactive)
REMARK    1  A    between atoms: C_2  and  N_4 
REMARK    2  A    between atoms: N_4  and  S_6 
REMARK    3  A    between atoms: S_6  and  C_9 
REMARK    4  A    between atoms: C_11  and  C_12 
REMARK    5  A    between atoms: N_17  and  C_18 
REMARK    6  A    between atoms: C_25  and  O_26 
REMARK    7  A    between atoms: C_28  and  O_29 
ROOT
HETATM    1  C   UNL     1       1.614  10.628  24.938  0.00  0.00     0.113 A 
HETATM    2  C   UNL     1       2.232   9.768  25.868  0.00  0.00     0.042 A 
HETATM    3  C   UNL     1       1.547   9.244  26.982  0.00  0.00     0.023 A 
HETATM    4  C   UNL     1       0.223   9.669  27.166  0.00  0.00     0.078 A 
HETATM    5  C   UNL     1      -0.393  10.542  26.262  0.00  0.00     0.075 A 
HETATM    6  C   UNL     1       0.294  11.011  25.139  0.00  0.00     0.091 A 
ENDROOT
BRANCH   3   7
HETATM    7  C   UNL     1       2.313   8.276  27.871  0.00  0.00     0.277 C 
HETATM    8  N   UNL     1       2.592   8.863  29.200  0.00  0.00    -0.156 NA
HETATM    9  N   UNL     1       2.313   8.032  30.107  0.00  0.00    -0.093 NA
HETATM   10  C   UNL     1       1.776   6.889  29.543  0.00  0.00     0.369 C 
HETATM   11  O   UNL     1       1.470   5.883  30.168  0.00  0.00    -0.243 OA
HETATM   12  N   UNL     1       1.644   7.064  28.181  0.00  0.00    -0.264 N 
BRANCH  12  13
HETATM   13  C   UNL     1       1.235   6.077  27.260  0.00  0.00     0.080 A 
HETATM   14  C   UNL     1       2.211   5.403  26.509  0.00  0.00     0.033 A 
HETATM   15  C   UNL     1       1.855   4.334  25.685  0.00  0.00     0.002 A 
HETATM   16  C   UNL     1       0.519   3.962  25.556  0.00  0.00     0.003 A 
HETATM   17  C   UNL     1      -0.464   4.652  26.263  0.00  0.00     0.044 A 
HETATM   18  C   UNL     1      -0.099   5.681  27.125  0.00  0.00     0.143 A 
HETATM   19  F   UNL     1      -1.068   6.329  27.790  0.00  0.00    -0.204 F 
ENDBRANCH  12  13
ENDBRANCH   3   7
BRANCH   4  20
HETATM   20  O   UNL     1      -0.572   9.276  28.203  0.00  0.00    -0.360 OA
HETATM   21  H   UNL     1      -0.140   8.566  28.701  0.00  0.00     0.217 HD
ENDBRANCH   4  20
BRANCH   1  22
HETATM   22  S   UNL     1       2.497  10.945  23.415  0.00  0.00     0.263 S 
HETATM   23  O   UNL     1       1.616  11.609  22.483  0.00  0.00    -0.200 OA
HETATM   24  O   UNL     1       3.074   9.668  23.027  0.00  0.00    -0.200 OA
BRANCH  22  25
HETATM   25  N   UNL     1       3.813  11.948  23.853  0.00  0.00    -0.307 N 
HETATM   26  C   UNL     1       5.129  11.256  23.851  0.00  0.00     0.163 C 
BRANCH  25  27
HETATM   27  C   UNL     1       3.685  12.980  24.932  0.00  0.00     0.087 C 
HETATM   28  C   UNL     1       5.035  13.699  25.126  0.00  0.00     0.032 C 
HETATM   29  C   UNL     1       2.664  14.077  24.620  0.00  0.00     0.032 C 
ENDBRANCH  25  27
ENDBRANCH  22  25
ENDBRANCH   1  22
BRANCH   6  30
HETATM   30  O   UNL     1      -0.343  11.862  24.292  0.00  0.00    -0.359 OA
HETATM   31  H   UNL     1      -1.305  11.822  24.451  0.00  0.00     0.217 HD
ENDBRANCH   6  30
TORSDOF 7
ENDMDL
MODEL 3
REMARK minimizedAffinity -7.02378988
REMARK minimizedRMSD -1
REMARK  7 active torsions:
REMARK  status: ('A' for Active; 'I' for Inactive)
REMARK    1  A    between atoms: C_2  and  N_4 
REMARK    2  A    between atoms: N_4  and  S_6 
REMARK    3  A    between atoms: S_6  and  C_9 
REMARK    4  A    between atoms: C_11  and  C_12 
REMARK    5  A    between atoms: N_17  and  C_18 
REMARK    6  A    between atoms: C_25  and  O_26 
REMARK    7  A    between atoms: C_28  and  O_29 
ROOT
HETATM    1  C   UNL     1       1.856   8.371  27.779  0.00  0.00     0.113 A 
HETATM    2  C   UNL     1       2.759   8.263  26.702  0.00  0.00     0.042 A 
HETATM    3  C   UNL     1       2.434   8.692  25.400  0.00  0.00     0.023 A 
HETATM    4  C   UNL     1       1.134   9.179  25.201  0.00  0.00     0.078 A 
HETATM    5  C   UNL     1       0.221   9.268  26.258  0.00  0.00     0.075 A 
HETATM    6  C   UNL     1       0.582   8.880  27.551  0.00  0.00     0.091 A 
ENDROOT
BRANCH   3   7
HETATM    7  C   UNL     1       3.523   8.577  24.344  0.00  0.00     0.277 C 
HETATM    8  N   UNL     1       3.265   7.456  23.416  0.00  0.00    -0.156 NA
HETATM    9  N   UNL     1       3.433   7.834  22.223  0.00  0.00    -0.093 NA
HETATM   10  C   UNL     1       3.728   9.184  22.200  0.00  0.00     0.369 C 
HETATM   11  O   UNL     1       4.005   9.818  21.191  0.00  0.00    -0.243 OA
HETATM   12  N   UNL     1       3.663   9.694  23.480  0.00  0.00    -0.264 N 
BRANCH  12  13
HETATM   13  C   UNL     1       4.007  11.008  23.862  0.00  0.00     0.080 A 
HETATM   14  C   UNL     1       2.982  11.948  24.056  0.00  0.00     0.033 A 
HETATM   15  C   UNL     1       3.274  13.217  24.557  0.00  0.00     0.002 A 
HETATM   16  C   UNL     1       4.593  13.584  24.815  0.00  0.00     0.003 A 
HETATM   17  C   UNL     1       5.622  12.674  24.586  0.00  0.00     0.044 A 
HETATM   18  C   UNL     1       5.322  11.391  24.138  0.00  0.00     0.143 A 
HETATM   19  F   UNL     1       6.335  10.538  23.923  0.00  0.00    -0.204 F 
ENDBRANCH  12  13
ENDBRANCH   3   7
BRANCH   4  20
HETATM   20  O   UNL     1       0.652   9.612  24.000  0.00  0.00    -0.360 OA
HETATM   21  H   UNL     1       1.372   9.663  23.353  0.00  0.00     0.217 HD
ENDBRANCH   4  20
BRANCH   1  22
HETATM   22  S   UNL     1       2.512   8.098  29.420  0.00  0.00     0.263 S 
HETATM   23  O   UNL     1       1.433   7.755  30.315  0.00  0.00    -0.200 OA
HETATM   24  O   UNL     1       3.309   9.277  29.721  0.00  0.00    -0.200 OA
BRANCH  22  25
HETATM   25  N   UNL     1       3.621   6.804  29.255  0.00  0.00    -0.307 N 
HETATM   26  C   UNL     1       2.984   5.492  28.971  0.00  0.00     0.163 C 
BRANCH  25  27
HETATM   27  C   UNL     1       4.836   6.700  30.126  0.00  0.00     0.087 C 
HETATM   28  C   UNL     1       4.624   5.599  31.184  0.00  0.00     0.032 C 
HETATM   29  C   UNL     1       6.109   6.315  29.367  0.00  0.00     0.032 C 
ENDBRANCH  25  27
ENDBRANCH  22  25
ENDBRANCH   1  22
BRANCH   6  30
HETATM   30  O   UNL     1      -0.339   8.979  28.545  0.00  0.00    -0.359 OA
HETATM   31  H   UNL     1      -1.064   9.567  28.260  0.00  0.00     0.217 HD
ENDBRANCH   6  30
TORSDOF 7
ENDMDL
MODEL 4
REMARK minimizedAffinity -6.94794655
REMARK minimizedRMSD -1
REMARK  7 active torsions:
REMARK  status: ('A' for Active; 'I' for Inactive)
REMARK    1  A    between atoms: C_2  and  N_4 
REMARK    2  A    between atoms: N_4  and  S_6 
REMARK    3  A    between atoms: S_6  and  C_9 
REMARK    4  A    between atoms: C_11  and  C_12 
REMARK    5  A    between atoms: N_17  and  C_18 
REMARK    6  A    between atoms: C_25  and  O_26 
REMARK    7  A    between atoms: C_28  and  O_29 
ROOT
HETATM    1  C   UNL     1       1.002   8.565  27.120  0.00  0.00     0.113 A 
HETATM    2  C   UNL     1       0.871   9.083  25.815  0.00  0.00     0.042 A 
HETATM    3  C   UNL     1      -0.078  10.071  25.488  0.00  0.00     0.023 A 
HETATM    4  C   UNL     1      -0.944  10.479  26.513  0.00  0.00     0.078 A 
HETATM    5  C   UNL     1      -0.839   9.954  27.806  0.00  0.00     0.075 A 
HETATM    6  C   UNL     1       0.142   9.008  28.118  0.00  0.00     0.091 A 
ENDROOT
BRANCH   3   7
HETATM    7  C   UNL     1      -0.069  10.589  24.058  0.00  0.00     0.277 C 
HETATM    8  N   UNL     1      -1.395  11.110  23.660  0.00  0.00    -0.156 NA
HETATM    9  N   UNL     1      -1.267  12.228  23.088  0.00  0.00    -0.093 NA
HETATM   10  C   UNL     1       0.063  12.607  23.100  0.00  0.00     0.369 C 
HETATM   11  O   UNL     1       0.504  13.614  22.562  0.00  0.00    -0.243 OA
HETATM   12  N   UNL     1       0.803  11.679  23.804  0.00  0.00    -0.264 N 
BRANCH  12  13
HETATM   13  C   UNL     1       2.207  11.674  23.935  0.00  0.00     0.080 A 
HETATM   14  C   UNL     1       2.928  10.566  23.461  0.00  0.00     0.033 A 
HETATM   15  C   UNL     1       4.324  10.583  23.457  0.00  0.00     0.002 A 
HETATM   16  C   UNL     1       5.016  11.675  23.976  0.00  0.00     0.003 A 
HETATM   17  C   UNL     1       4.310  12.762  24.487  0.00  0.00     0.044 A 
HETATM   18  C   UNL     1       2.919  12.765  24.440  0.00  0.00     0.143 A 
HETATM   19  F   UNL     1       2.268  13.825  24.945  0.00  0.00    -0.204 F 
ENDBRANCH  12  13
ENDBRANCH   3   7
BRANCH   4  20
HETATM   20  O   UNL     1      -1.932  11.408  26.359  0.00  0.00    -0.360 OA
HETATM   21  H   UNL     1      -1.853  11.835  25.493  0.00  0.00     0.217 HD
ENDBRANCH   4  20
BRANCH   1  22
HETATM   22  S   UNL     1       2.450   7.571  27.458  0.00  0.00     0.263 S 
HETATM   23  O   UNL     1       3.066   8.026  28.681  0.00  0.00    -0.200 OA
HETATM   24  O   UNL     1       3.238   7.605  26.236  0.00  0.00    -0.200 OA
BRANCH  22  25
HETATM   25  N   UNL     1       1.874   5.966  27.607  0.00  0.00    -0.307 N 
HETATM   26  C   UNL     1       2.838   5.033  28.248  0.00  0.00     0.163 C 
BRANCH  25  27
HETATM   27  C   UNL     1       1.054   5.326  26.529  0.00  0.00     0.087 C 
HETATM   28  C   UNL     1       1.491   3.858  26.346  0.00  0.00     0.032 C 
HETATM   29  C   UNL     1      -0.445   5.284  26.836  0.00  0.00     0.032 C 
ENDBRANCH  25  27
ENDBRANCH  22  25
ENDBRANCH   1  22
BRANCH   6  30
HETATM   30  O   UNL     1       0.202   8.522  29.385  0.00  0.00    -0.359 OA
HETATM   31  H   UNL     1      -0.297   9.109  29.984  0.00  0.00     0.217 HD
ENDBRANCH   6  30
TORSDOF 7
ENDMDL
MODEL 5
REMARK minimizedAffinity -6.92156458
REMARK minimizedRMSD -1
REMARK  7 active torsions:
REMARK  status: ('A' for Active; 'I' for Inactive)
REMARK    1  A    between atoms: C_2  and  N_4 
REMARK    2  A    between atoms: N_4  and  S_6 
REMARK    3  A    between atoms: S_6  and  C_9 
REMARK    4  A    between atoms: C_11  and  C_12 
REMARK    5  A    between atoms: N_17  and  C_18 
REMARK    6  A    between atoms: C_25  and  O_26 
REMARK    7  A    between atoms: C_28  and  O_29 
ROOT
HETATM    1  C   UNL     1       1.522   8.486  25.358  0.00  0.00     0.113 A 
HETATM    2  C   UNL     1       2.856   8.942  25.321  0.00  0.00     0.042 A 
HETATM    3  C   UNL     1       3.628   8.921  24.143  0.00  0.00     0.023 A 
HETATM    4  C   UNL     1       3.029   8.362  23.005  0.00  0.00     0.078 A 
HETATM    5  C   UNL     1       1.714   7.884  23.036  0.00  0.00     0.075 A 
HETATM    6  C   UNL     1       0.952   7.958  24.205  0.00  0.00     0.091 A 
ENDROOT
BRANCH   3   7
HETATM    7  C   UNL     1       5.031   9.503  24.228  0.00  0.00     0.277 C 
HETATM    8  N   UNL     1       5.993   8.722  23.421  0.00  0.00    -0.156 NA
HETATM    9  N   UNL     1       6.710   9.498  22.731  0.00  0.00    -0.093 NA
HETATM   10  C   UNL     1       6.294  10.804  22.916  0.00  0.00     0.369 C 
HETATM   11  O   UNL     1       6.840  11.783  22.427  0.00  0.00    -0.243 OA
HETATM   12  N   UNL     1       5.181  10.824  23.731  0.00  0.00    -0.264 N 
BRANCH  12  13
HETATM   13  C   UNL     1       4.545  11.980  24.228  0.00  0.00     0.080 A 
HETATM   14  C   UNL     1       5.272  12.854  25.052  0.00  0.00     0.033 A 
HETATM   15  C   UNL     1       4.718  14.070  25.455  0.00  0.00     0.002 A 
HETATM   16  C   UNL     1       3.415  14.403  25.091  0.00  0.00     0.003 A 
HETATM   17  C   UNL     1       2.669  13.524  24.309  0.00  0.00     0.044 A 
HETATM   18  C   UNL     1       3.244  12.338  23.863  0.00  0.00     0.143 A 
HETATM   19  F   UNL     1       2.498  11.511  23.115  0.00  0.00    -0.204 F 
ENDBRANCH  12  13
ENDBRANCH   3   7
BRANCH   4  20
HETATM   20  O   UNL     1       3.645   8.245  21.793  0.00  0.00    -0.360 OA
HETATM   21  H   UNL     1       4.487   8.724  21.801  0.00  0.00     0.217 HD
ENDBRANCH   4  20
BRANCH   1  22
HETATM   22  S   UNL     1       0.571   8.874  26.822  0.00  0.00     0.263 S 
HETATM   23  O   UNL     1       1.470   9.102  27.928  0.00  0.00    -0.200 OA
HETATM   24  O   UNL     1      -0.411   7.808  26.941  0.00  0.00    -0.200 OA
BRANCH  22  25
HETATM   25  N   UNL     1      -0.309  10.289  26.429  0.00  0.00    -0.307 N 
HETATM   26  C   UNL     1      -1.382  10.625  27.402  0.00  0.00     0.163 C 
BRANCH  25  27
HETATM   27  C   UNL     1      -0.664  10.622  25.013  0.00  0.00     0.087 C 
HETATM   28  C   UNL     1      -2.192  10.531  24.825  0.00  0.00     0.032 C 
HETATM   29  C   UNL     1      -0.271  12.041  24.594  0.00  0.00     0.032 C 
ENDBRANCH  25  27
ENDBRANCH  22  25
ENDBRANCH   1  22
BRANCH   6  30
HETATM   30  O   UNL     1      -0.318   7.476  24.190  0.00  0.00    -0.359 OA
HETATM   31  H   UNL     1      -0.618   7.378  23.266  0.00  0.00     0.217 HD
ENDBRANCH   6  30
TORSDOF 7
ENDMDL
MODEL 6
REMARK minimizedAffinity -6.87368155
REMARK minimizedRMSD -1
REMARK  7 active torsions:
REMARK  status: ('A' for Active; 'I' for Inactive)
REMARK    1  A    between atoms: C_2  and  N_4 
REMARK    2  A    between atoms: N_4  and  S_6 
REMARK    3  A    between atoms: S_6  and  C_9 
REMARK    4  A    between atoms: C_11  and  C_12 
REMARK    5  A    between atoms: N_17  and  C_18 
REMARK    6  A    between atoms: C_25  and  O_26 
REMARK    7  A    between atoms: C_28  and  O_29 
ROOT
HETATM    1  C   UNL     1       1.284   9.336  25.871  0.00  0.00     0.113 A 
HETATM    2  C   UNL     1       2.662   9.428  25.585  0.00  0.00     0.042 A 
HETATM    3  C   UNL     1       3.153  10.106  24.452  0.00  0.00     0.023 A 
HETATM    4  C   UNL     1       2.200  10.640  23.572  0.00  0.00     0.078 A 
HETATM    5  C   UNL     1       0.830  10.534  23.834  0.00  0.00     0.075 A 
HETATM    6  C   UNL     1       0.368   9.896  24.988  0.00  0.00     0.091 A 
ENDROOT
BRANCH   3   7
HETATM    7  C   UNL     1       4.665  10.185  24.298  0.00  0.00     0.277 C 
HETATM    8  N   UNL     1       5.162   9.203  23.309  0.00  0.00    -0.156 NA
HETATM    9  N   UNL     1       5.978   9.757  22.522  0.00  0.00    -0.093 NA
HETATM   10  C   UNL     1       6.064  11.106  22.814  0.00  0.00     0.369 C 
HETATM   11  O   UNL     1       6.823  11.890  22.261  0.00  0.00    -0.243 OA
HETATM   12  N   UNL     1       5.170  11.420  23.817  0.00  0.00    -0.264 N 
BRANCH  12  13
HETATM   13  C   UNL     1       5.052  12.675  24.451  0.00  0.00     0.080 A 
HETATM   14  C   UNL     1       3.796  13.302  24.484  0.00  0.00     0.033 A 
HETATM   15  C   UNL     1       3.614  14.478  25.212  0.00  0.00     0.002 A 
HETATM   16  C   UNL     1       4.690  15.074  25.866  0.00  0.00     0.003 A 
HETATM   17  C   UNL     1       5.951  14.483  25.804  0.00  0.00     0.044 A 
HETATM   18  C   UNL     1       6.116  13.281  25.123  0.00  0.00     0.143 A 
HETATM   19  F   UNL     1       7.343  12.739  25.078  0.00  0.00    -0.204 F 
ENDBRANCH  12  13
ENDBRANCH   3   7
BRANCH   4  20
HETATM   20  O   UNL     1       2.507  11.305  22.420  0.00  0.00    -0.360 OA
HETATM   21  H   UNL     1       3.460  11.471  22.378  0.00  0.00     0.217 HD
ENDBRANCH   4  20
BRANCH   1  22
HETATM   22  S   UNL     1       0.829   8.739  27.494  0.00  0.00     0.263 S 
HETATM   23  O   UNL     1      -0.460   9.278  27.856  0.00  0.00    -0.200 OA
HETATM   24  O   UNL     1       1.966   9.039  28.351  0.00  0.00    -0.200 OA
BRANCH  22  25
HETATM   25  N   UNL     1       0.777   7.035  27.353  0.00  0.00    -0.307 N 
HETATM   26  C   UNL     1       2.087   6.368  27.578  0.00  0.00     0.163 C 
BRANCH  25  27
HETATM   27  C   UNL     1      -0.063   6.361  26.311  0.00  0.00     0.087 C 
HETATM   28  C   UNL     1       0.790   6.079  25.058  0.00  0.00     0.032 C 
HETATM   29  C   UNL     1      -0.626   5.007  26.751  0.00  0.00     0.032 C 
ENDBRANCH  25  27
ENDBRANCH  22  25
ENDBRANCH   1  22
BRANCH   6  30
HETATM   30  O   UNL     1      -0.972   9.812  25.197  0.00  0.00    -0.359 OA
HETATM   31  H   UNL     1      -1.433  10.454  24.624  0.00  0.00     0.217 HD
ENDBRANCH   6  30
TORSDOF 7
ENDMDL
MODEL 7
REMARK minimizedAffinity -6.87266731
REMARK minimizedRMSD -1
REMARK  7 active torsions:
REMARK  status: ('A' for Active; 'I' for Inactive)
REMARK    1  A    between atoms: C_2  and  N_4 
REMARK    2  A    between atoms: N_4  and  S_6 
REMARK    3  A    between atoms: S_6  and  C_9 
REMARK    4  A    between atoms: C_11  and  C_12 
REMARK    5  A    between atoms: N_17  and  C_18 
REMARK    6  A    between atoms: C_25  and  O_26 
REMARK    7  A    between atoms: C_28  and  O_29 
ROOT
HETATM    1  C   UNL     1       1.744   8.170  25.074  0.00  0.00     0.113 A 
HETATM    2  C   UNL     1       3.033   8.741  25.118  0.00  0.00     0.042 A 
HETATM    3  C   UNL     1       3.902   8.726  24.009  0.00  0.00     0.023 A 
HETATM    4  C   UNL     1       3.452   8.055  22.863  0.00  0.00     0.078 A 
HETATM    5  C   UNL     1       2.185   7.464  22.817  0.00  0.00     0.075 A 
HETATM    6  C   UNL     1       1.322   7.532  23.914  0.00  0.00     0.091 A 
ENDROOT
BRANCH   3   7
HETATM    7  C   UNL     1       5.238   9.435  24.171  0.00  0.00     0.277 C 
HETATM    8  N   UNL     1       6.313   8.746  23.425  0.00  0.00    -0.156 NA
HETATM    9  N   UNL     1       6.993   9.585  22.772  0.00  0.00    -0.093 NA
HETATM   10  C   UNL     1       6.449  10.847  22.926  0.00  0.00     0.369 C 
HETATM   11  O   UNL     1       6.929  11.872  22.464  0.00  0.00    -0.243 OA
HETATM   12  N   UNL     1       5.294  10.764  23.676  0.00  0.00    -0.264 N 
BRANCH  12  13
HETATM   13  C   UNL     1       4.526  11.857  24.129  0.00  0.00     0.080 A 
HETATM   14  C   UNL     1       5.140  12.829  24.935  0.00  0.00     0.033 A 
HETATM   15  C   UNL     1       4.448  13.987  25.294  0.00  0.00     0.002 A 
HETATM   16  C   UNL     1       3.123  14.164  24.904  0.00  0.00     0.003 A 
HETATM   17  C   UNL     1       2.490  13.186  24.139  0.00  0.00     0.044 A 
HETATM   18  C   UNL     1       3.199  12.058  23.738  0.00  0.00     0.143 A 
HETATM   19  F   UNL     1       2.561  11.132  23.006  0.00  0.00    -0.204 F 
ENDBRANCH  12  13
ENDBRANCH   3   7
BRANCH   4  20
HETATM   20  O   UNL     1       4.177   7.929  21.713  0.00  0.00    -0.360 OA
HETATM   21  H   UNL     1       4.971   8.482  21.760  0.00  0.00     0.217 HD
ENDBRANCH   4  20
BRANCH   1  22
HETATM   22  S   UNL     1       0.642   8.549  26.431  0.00  0.00     0.263 S 
HETATM   23  O   UNL     1      -0.717   8.267  26.034  0.00  0.00    -0.200 OA
HETATM   24  O   UNL     1       0.974   9.906  26.833  0.00  0.00    -0.200 OA
BRANCH  22  25
HETATM   25  N   UNL     1       1.140   7.536  27.717  0.00  0.00    -0.307 N 
HETATM   26  C   UNL     1       0.407   6.245  27.791  0.00  0.00     0.163 C 
BRANCH  25  27
HETATM   27  C   UNL     1       1.497   8.096  29.061  0.00  0.00     0.087 C 
HETATM   28  C   UNL     1       1.075   7.105  30.165  0.00  0.00     0.032 C 
HETATM   29  C   UNL     1       2.997   8.329  29.255  0.00  0.00     0.032 C 
ENDBRANCH  25  27
ENDBRANCH  22  25
ENDBRANCH   1  22
BRANCH   6  30
HETATM   30  O   UNL     1       0.103   6.938  23.826  0.00  0.00    -0.359 OA
HETATM   31  H   UNL     1      -0.108   6.763  22.889  0.00  0.00     0.217 HD
ENDBRANCH   6  30
TORSDOF 7
ENDMDL
MODEL 8
REMARK minimizedAffinity -6.86115503
REMARK minimizedRMSD -1
REMARK  7 active torsions:
REMARK  status: ('A' for Active; 'I' for Inactive)
REMARK    1  A    between atoms: C_2  and  N_4 
REMARK    2  A    between atoms: N_4  and  S_6 
REMARK    3  A    between atoms: S_6  and  C_9 
REMARK    4  A    between atoms: C_11  and  C_12 
REMARK    5  A    between atoms: N_17  and  C_18 
REMARK    6  A    between atoms: C_25  and  O_26 
REMARK    7  A    between atoms: C_28  and  O_29 
ROOT
HETATM    1  C   UNL     1       1.187   8.027  25.478  0.00  0.00     0.113 A 
HETATM    2  C   UNL     1       2.339   8.019  24.665  0.00  0.00     0.042 A 
HETATM    3  C   UNL     1       2.374   7.372  23.414  0.00  0.00     0.023 A 
HETATM    4  C   UNL     1       1.221   6.672  23.032  0.00  0.00     0.078 A 
HETATM    5  C   UNL     1       0.080   6.653  23.842  0.00  0.00     0.075 A 
HETATM    6  C   UNL     1       0.054   7.342  25.058  0.00  0.00     0.091 A 
ENDROOT
BRANCH   3   7
HETATM    7  C   UNL     1       3.660   7.496  22.610  0.00  0.00     0.277 C 
HETATM    8  N   UNL     1       3.603   6.697  21.367  0.00  0.00    -0.156 NA
HETATM    9  N   UNL     1       4.014   7.384  20.391  0.00  0.00    -0.093 NA
HETATM   10  C   UNL     1       4.305   8.667  20.815  0.00  0.00     0.369 C 
HETATM   11  O   UNL     1       4.784   9.541  20.107  0.00  0.00    -0.243 OA
HETATM   12  N   UNL     1       3.974   8.800  22.148  0.00  0.00    -0.264 N 
BRANCH  12  13
HETATM   13  C   UNL     1       4.228   9.932  22.950  0.00  0.00     0.080 A 
HETATM   14  C   UNL     1       5.529  10.140  23.436  0.00  0.00     0.033 A 
HETATM   15  C   UNL     1       5.847  11.313  24.124  0.00  0.00     0.002 A 
HETATM   16  C   UNL     1       4.862  12.263  24.384  0.00  0.00     0.003 A 
HETATM   17  C   UNL     1       3.558  12.047  23.944  0.00  0.00     0.044 A 
HETATM   18  C   UNL     1       3.257  10.903  23.212  0.00  0.00     0.143 A 
HETATM   19  F   UNL     1       1.991  10.722  22.805  0.00  0.00    -0.204 F 
ENDBRANCH  12  13
ENDBRANCH   3   7
BRANCH   4  20
HETATM   20  O   UNL     1       1.097   5.975  21.865  0.00  0.00    -0.360 OA
HETATM   21  H   UNL     1       1.858   6.151  21.292  0.00  0.00     0.217 HD
ENDBRANCH   4  20
BRANCH   1  22
HETATM   22  S   UNL     1       1.183   9.153  26.869  0.00  0.00     0.263 S 
HETATM   23  O   UNL     1       2.497   9.730  27.019  0.00  0.00    -0.200 OA
HETATM   24  O   UNL     1       0.633   8.393  27.980  0.00  0.00    -0.200 OA
BRANCH  22  25
HETATM   25  N   UNL     1       0.017  10.345  26.484  0.00  0.00    -0.307 N 
HETATM   26  C   UNL     1      -1.181  10.327  27.363  0.00  0.00     0.163 C 
BRANCH  25  27
HETATM   27  C   UNL     1      -0.293  10.706  25.063  0.00  0.00     0.087 C 
HETATM   28  C   UNL     1      -1.808  10.565  24.810  0.00  0.00     0.032 C 
HETATM   29  C   UNL     1       0.062  12.151  24.701  0.00  0.00     0.032 C 
ENDBRANCH  25  27
ENDBRANCH  22  25
ENDBRANCH   1  22
BRANCH   6  30
HETATM   30  O   UNL     1      -1.074   7.290  25.814  0.00  0.00    -0.359 OA
HETATM   31  H   UNL     1      -1.821   6.983  25.266  0.00  0.00     0.217 HD
ENDBRANCH   6  30
TORSDOF 7
ENDMDL
MODEL 9
REMARK minimizedAffinity -6.84978247
REMARK minimizedRMSD -1
REMARK  7 active torsions:
REMARK  status: ('A' for Active; 'I' for Inactive)
REMARK    1  A    between atoms: C_2  and  N_4 
REMARK    2  A    between atoms: N_4  and  S_6 
REMARK    3  A    between atoms: S_6  and  C_9 
REMARK    4  A    between atoms: C_11  and  C_12 
REMARK    5  A    between atoms: N_17  and  C_18 
REMARK    6  A    between atoms: C_25  and  O_26 
REMARK    7  A    between atoms: C_28  and  O_29 
ROOT
HETATM    1  C   UNL     1       5.269  10.283  22.785  0.00  0.00     0.113 A 
HETATM    2  C   UNL     1       4.534  11.115  23.654  0.00  0.00     0.042 A 
HETATM    3  C   UNL     1       5.127  12.181  24.359  0.00  0.00     0.023 A 
HETATM    4  C   UNL     1       6.512  12.343  24.210  0.00  0.00     0.078 A 
HETATM    5  C   UNL     1       7.256  11.507  23.370  0.00  0.00     0.075 A 
HETATM    6  C   UNL     1       6.636  10.486  22.644  0.00  0.00     0.091 A 
ENDROOT
BRANCH   3   7
HETATM    7  C   UNL     1       4.207  13.040  25.212  0.00  0.00     0.277 C 
HETATM    8  N   UNL     1       4.660  14.447  25.253  0.00  0.00    -0.156 NA
HETATM    9  N   UNL     1       3.684  15.223  25.057  0.00  0.00    -0.093 NA
HETATM   10  C   UNL     1       2.545  14.482  24.800  0.00  0.00     0.369 C 
HETATM   11  O   UNL     1       1.429  14.955  24.635  0.00  0.00    -0.243 OA
HETATM   12  N   UNL     1       2.865  13.140  24.761  0.00  0.00    -0.264 N 
BRANCH  12  13
HETATM   13  C   UNL     1       1.946  12.078  24.631  0.00  0.00     0.080 A 
HETATM   14  C   UNL     1       1.878  11.112  25.647  0.00  0.00     0.033 A 
HETATM   15  C   UNL     1       0.895  10.122  25.615  0.00  0.00     0.002 A 
HETATM   16  C   UNL     1       0.007  10.047  24.544  0.00  0.00     0.003 A 
HETATM   17  C   UNL     1       0.093  10.975  23.508  0.00  0.00     0.044 A 
HETATM   18  C   UNL     1       1.039  11.994  23.571  0.00  0.00     0.143 A 
HETATM   19  F   UNL     1       1.100  12.870  22.556  0.00  0.00    -0.204 F 
ENDBRANCH  12  13
ENDBRANCH   3   7
BRANCH   4  20
HETATM   20  O   UNL     1       7.244  13.309  24.839  0.00  0.00    -0.360 OA
HETATM   21  H   UNL     1       6.653  13.936  25.281  0.00  0.00     0.217 HD
ENDBRANCH   4  20
BRANCH   1  22
HETATM   22  S   UNL     1       4.333   9.195  21.717  0.00  0.00     0.263 S 
HETATM   23  O   UNL     1       4.867   9.267  20.378  0.00  0.00    -0.200 OA
HETATM   24  O   UNL     1       2.939   9.554  21.923  0.00  0.00    -0.200 OA
BRANCH  22  25
HETATM   25  N   UNL     1       4.525   7.630  22.383  0.00  0.00    -0.307 N 
HETATM   26  C   UNL     1       3.654   6.597  21.763  0.00  0.00     0.163 C 
BRANCH  25  27
HETATM   27  C   UNL     1       4.739   7.426  23.851  0.00  0.00     0.087 C 
HETATM   28  C   UNL     1       3.394   7.548  24.595  0.00  0.00     0.032 C 
HETATM   29  C   UNL     1       5.295   6.045  24.209  0.00  0.00     0.032 C 
ENDBRANCH  25  27
ENDBRANCH  22  25
ENDBRANCH   1  22
BRANCH   6  30
HETATM   30  O   UNL     1       7.400   9.696  21.845  0.00  0.00    -0.359 OA
HETATM   31  H   UNL     1       8.261  10.128  21.685  0.00  0.00     0.217 HD
ENDBRANCH   6  30
TORSDOF 7
ENDMDL
