MODEL 1
REMARK VINA RESULT:    -9.491      0.000      0.000
REMARK INTER + INTRA:         -13.163
REMARK INTER:                 -12.311
REMARK INTRA:                  -0.852
REMARK UNBOUND:                -1.175
REMARK  5 active torsions:
REMARK  status: ('A' for Active; 'I' for Inactive)
REMARK    1  A    between atoms: C_7  and  N_10 
REMARK       I    between atoms: N_10  and  C_12 
REMARK    2  A    between atoms: C_12  and  C_14 
REMARK    3  A    between atoms: C_16  and  O_17 
REMARK    4  A    between atoms: C_24  and  C_25 
REMARK    5  A    between atoms: C_25  and  C_26 
ROOT
HETATM    1  C   UNL     1       2.351   8.297  25.195  0.00  0.00     0.066 A 
HETATM    2  C   UNL     1       1.058   8.850  24.993  0.00  0.00     0.035 A 
HETATM    3  C   UNL     1       2.783   8.101  26.508  0.00  0.00     0.083 A 
HETATM    4  C   UNL     1       2.034   8.519  27.619  0.00  0.00     0.069 A 
HETATM    5  C   UNL     1       0.790   9.100  27.374  0.00  0.00     0.065 A 
HETATM    6  C   UNL     1       0.280   9.285  26.092  0.00  0.00     0.020 A 
HETATM    7  N   UNL     1      -0.175   9.567  28.223  0.00  0.00    -0.277 N 
HETATM    8  H   UNL     1      -0.158   9.576  29.236  0.00  0.00     0.189 HD
HETATM    9  N   UNL     1      -1.267  10.041  27.611  0.00  0.00    -0.178 NA
HETATM   10  C   UNL     1      -0.987   9.915  26.301  0.00  0.00     0.071 A 
ENDROOT
BRANCH   1  11
HETATM   11  C   UNL     1       3.052   7.792  23.961  0.00  0.00     0.260 C 
HETATM   12  N   UNL     1       3.680   8.656  23.025  0.00  0.00    -0.318 N 
HETATM   13  C   UNL     1       3.889  10.079  23.297  0.00  0.00     0.159 C 
HETATM   14  O   UNL     1       3.005   6.562  23.835  0.00  0.00    -0.267 OA
BRANCH  12  15
HETATM   15  C   UNL     1       4.172   8.162  21.744  0.00  0.00     0.039 A 
HETATM   16  C   UNL     1       3.505   7.151  21.034  0.00  0.00     0.069 A 
HETATM   17  C   UNL     1       3.979   6.771  19.783  0.00  0.00     0.107 A 
HETATM   18  O   UNL     1       3.422   5.828  18.975  0.00  0.00    -0.323 OA
HETATM   19  C   UNL     1       5.081   7.357  19.212  0.00  0.00     0.105 A 
HETATM   20  C   UNL     1       4.324   5.863  17.850  0.00  0.00     0.352 A 
HETATM   21  O   UNL     1       5.362   6.856  17.980  0.00  0.00    -0.323 OA
HETATM   22  C   UNL     1       5.775   8.345  19.862  0.00  0.00     0.042 A 
HETATM   23  C   UNL     1       5.321   8.741  21.131  0.00  0.00     0.032 A 
ENDBRANCH  12  15
ENDBRANCH   1  11
BRANCH   3  24
HETATM   24  O   UNL     1       3.955   7.458  26.785  0.00  0.00    -0.360 OA
HETATM   25  H   UNL     1       4.632   8.150  26.873  0.00  0.00     0.217 HD
ENDBRANCH   3  24
BRANCH  10  26
HETATM   26  C   UNL     1      -1.990  10.379  25.295  0.00  0.00     0.100 C 
BRANCH  26  27
HETATM   27  C   UNL     1      -1.373  11.542  24.546  0.00  0.00    -0.052 A 
HETATM   28  C   UNL     1      -0.499  12.415  25.208  0.00  0.00     0.007 A 
HETATM   29  C   UNL     1       0.155  13.427  24.510  0.00  0.00     0.001 A 
HETATM   30  C   UNL     1      -0.077  13.604  23.149  0.00  0.00     0.007 A 
HETATM   31  C   UNL     1      -0.988  12.783  22.473  0.00  0.00    -0.061 A 
HETATM   32  C   UNL     1      -1.620  11.745  23.174  0.00  0.00     0.014 A 
HETATM   33  C   UNL     1      -1.317  13.040  21.031  0.00  0.00     0.048 C 
ENDBRANCH  26  27
ENDBRANCH  10  26
TORSDOF 5
ENDMDL
MODEL 2
REMARK VINA RESULT:    -9.353      0.273      1.227
REMARK INTER + INTRA:         -12.989
REMARK INTER:                 -12.166
REMARK INTRA:                  -0.823
REMARK UNBOUND:                -1.175
REMARK  5 active torsions:
REMARK  status: ('A' for Active; 'I' for Inactive)
REMARK    1  A    between atoms: C_7  and  N_10 
REMARK       I    between atoms: N_10  and  C_12 
REMARK    2  A    between atoms: C_12  and  C_14 
REMARK    3  A    between atoms: C_16  and  O_17 
REMARK    4  A    between atoms: C_24  and  C_25 
REMARK    5  A    between atoms: C_25  and  C_26 
ROOT
HETATM    1  C   UNL     1       2.342   8.279  25.187  0.00  0.00     0.066 A 
HETATM    2  C   UNL     1       1.054   8.843  24.984  0.00  0.00     0.035 A 
HETATM    3  C   UNL     1       2.769   8.073  26.500  0.00  0.00     0.083 A 
HETATM    4  C   UNL     1       2.019   8.490  27.611  0.00  0.00     0.069 A 
HETATM    5  C   UNL     1       0.780   9.081  27.365  0.00  0.00     0.065 A 
HETATM    6  C   UNL     1       0.275   9.277  26.083  0.00  0.00     0.020 A 
HETATM    7  N   UNL     1      -0.184   9.550  28.214  0.00  0.00    -0.277 N 
HETATM    8  H   UNL     1      -0.171   9.553  29.227  0.00  0.00     0.189 HD
HETATM    9  N   UNL     1      -1.270  10.036  27.601  0.00  0.00    -0.178 NA
HETATM   10  C   UNL     1      -0.988   9.915  26.291  0.00  0.00     0.071 A 
ENDROOT
BRANCH   1  11
HETATM   11  C   UNL     1       3.044   7.776  23.953  0.00  0.00     0.260 C 
HETATM   12  N   UNL     1       3.679   8.640  23.022  0.00  0.00    -0.318 N 
HETATM   13  C   UNL     1       3.896  10.060  23.302  0.00  0.00     0.159 C 
HETATM   14  O   UNL     1       2.989   6.547  23.820  0.00  0.00    -0.267 OA
BRANCH  12  15
HETATM   15  C   UNL     1       4.171   8.150  21.740  0.00  0.00     0.039 A 
HETATM   16  C   UNL     1       3.508   7.135  21.030  0.00  0.00     0.069 A 
HETATM   17  C   UNL     1       3.982   6.758  19.779  0.00  0.00     0.107 A 
HETATM   18  O   UNL     1       3.429   5.813  18.971  0.00  0.00    -0.323 OA
HETATM   19  C   UNL     1       5.081   7.350  19.206  0.00  0.00     0.105 A 
HETATM   20  C   UNL     1       4.328   5.853  17.844  0.00  0.00     0.352 A 
HETATM   21  O   UNL     1       5.361   6.851  17.974  0.00  0.00    -0.323 OA
HETATM   22  C   UNL     1       5.771   8.342  19.855  0.00  0.00     0.042 A 
HETATM   23  C   UNL     1       5.317   8.734  21.126  0.00  0.00     0.032 A 
ENDBRANCH  12  15
ENDBRANCH   1  11
BRANCH   3  24
HETATM   24  O   UNL     1       3.935   7.419  26.778  0.00  0.00    -0.360 OA
HETATM   25  H   UNL     1       3.857   7.099  27.691  0.00  0.00     0.217 HD
ENDBRANCH   3  24
BRANCH  10  26
HETATM   26  C   UNL     1      -1.984  10.392  25.285  0.00  0.00     0.100 C 
BRANCH  26  27
HETATM   27  C   UNL     1      -1.319  11.483  24.473  0.00  0.00    -0.052 A 
HETATM   28  C   UNL     1      -1.689  11.683  23.136  0.00  0.00     0.007 A 
HETATM   29  C   UNL     1      -1.161  12.745  22.406  0.00  0.00     0.001 A 
HETATM   30  C   UNL     1      -0.233  13.604  22.987  0.00  0.00     0.007 A 
HETATM   31  C   UNL     1       0.198  13.395  24.303  0.00  0.00    -0.061 A 
HETATM   32  C   UNL     1      -0.360  12.343  25.044  0.00  0.00     0.014 A 
HETATM   33  C   UNL     1       1.276  14.257  24.895  0.00  0.00     0.048 C 
ENDBRANCH  26  27
ENDBRANCH  10  26
TORSDOF 5
ENDMDL
MODEL 3
REMARK VINA RESULT:    -9.216      1.180      1.447
REMARK INTER + INTRA:         -12.816
REMARK INTER:                 -11.997
REMARK INTRA:                  -0.818
REMARK UNBOUND:                -1.175
REMARK  5 active torsions:
REMARK  status: ('A' for Active; 'I' for Inactive)
REMARK    1  A    between atoms: C_7  and  N_10 
REMARK       I    between atoms: N_10  and  C_12 
REMARK    2  A    between atoms: C_12  and  C_14 
REMARK    3  A    between atoms: C_16  and  O_17 
REMARK    4  A    between atoms: C_24  and  C_25 
REMARK    5  A    between atoms: C_25  and  C_26 
ROOT
HETATM    1  C   UNL     1       1.896   8.550  26.246  0.00  0.00     0.066 A 
HETATM    2  C   UNL     1       0.664   9.068  25.765  0.00  0.00     0.035 A 
HETATM    3  C   UNL     1       2.093   8.498  27.627  0.00  0.00     0.083 A 
HETATM    4  C   UNL     1       1.167   9.026  28.541  0.00  0.00     0.069 A 
HETATM    5  C   UNL     1      -0.009   9.567  28.024  0.00  0.00     0.065 A 
HETATM    6  C   UNL     1      -0.288   9.611  26.661  0.00  0.00     0.020 A 
HETATM    7  N   UNL     1      -1.102  10.114  28.639  0.00  0.00    -0.277 N 
HETATM    8  H   UNL     1      -1.260  10.230  29.632  0.00  0.00     0.189 HD
HETATM    9  N   UNL     1      -2.065  10.512  27.800  0.00  0.00    -0.178 NA
HETATM   10  C   UNL     1      -1.565  10.249  26.579  0.00  0.00     0.071 A 
ENDROOT
BRANCH   1  11
HETATM   11  C   UNL     1       2.796   7.923  25.213  0.00  0.00     0.260 C 
HETATM   12  N   UNL     1       3.492   8.682  24.235  0.00  0.00    -0.318 N 
HETATM   13  C   UNL     1       3.569  10.142  24.294  0.00  0.00     0.159 C 
HETATM   14  O   UNL     1       2.845   6.689  25.285  0.00  0.00    -0.267 OA
BRANCH  12  15
HETATM   15  C   UNL     1       4.190   8.040  23.127  0.00  0.00     0.039 A 
HETATM   16  C   UNL     1       3.968   8.418  21.792  0.00  0.00     0.069 A 
HETATM   17  C   UNL     1       4.716   7.822  20.783  0.00  0.00     0.107 A 
HETATM   18  O   UNL     1       4.626   8.106  19.455  0.00  0.00    -0.323 OA
HETATM   19  C   UNL     1       5.672   6.873  21.046  0.00  0.00     0.105 A 
HETATM   20  C   UNL     1       5.609   7.200  18.913  0.00  0.00     0.352 A 
HETATM   21  O   UNL     1       6.300   6.437  19.923  0.00  0.00    -0.323 OA
HETATM   22  C   UNL     1       5.928   6.461  22.330  0.00  0.00     0.042 A 
HETATM   23  C   UNL     1       5.179   7.042  23.367  0.00  0.00     0.032 A 
ENDBRANCH  12  15
ENDBRANCH   1  11
BRANCH   3  24
HETATM   24  O   UNL     1       3.193   7.897  28.169  0.00  0.00    -0.360 OA
HETATM   25  H   UNL     1       2.945   6.971  28.332  0.00  0.00     0.217 HD
ENDBRANCH   3  24
BRANCH  10  26
HETATM   26  C   UNL     1      -2.374  10.596  25.372  0.00  0.00     0.100 C 
BRANCH  26  27
HETATM   27  C   UNL     1      -1.606  11.651  24.602  0.00  0.00    -0.052 A 
HETATM   28  C   UNL     1      -0.673  12.460  25.266  0.00  0.00     0.007 A 
HETATM   29  C   UNL     1       0.113  13.364  24.556  0.00  0.00     0.001 A 
HETATM   30  C   UNL     1      -0.042  13.499  23.180  0.00  0.00     0.007 A 
HETATM   31  C   UNL     1      -1.005  12.746  22.498  0.00  0.00    -0.061 A 
HETATM   32  C   UNL     1      -1.773  11.813  23.213  0.00  0.00     0.014 A 
HETATM   33  C   UNL     1      -1.245  12.966  21.032  0.00  0.00     0.048 C 
ENDBRANCH  26  27
ENDBRANCH  10  26
TORSDOF 5
ENDMDL
MODEL 4
REMARK VINA RESULT:    -8.652      3.326      8.261
REMARK INTER + INTRA:         -12.103
REMARK INTER:                 -10.991
REMARK INTRA:                  -1.112
REMARK UNBOUND:                -1.175
REMARK  5 active torsions:
REMARK  status: ('A' for Active; 'I' for Inactive)
REMARK    1  A    between atoms: C_7  and  N_10 
REMARK       I    between atoms: N_10  and  C_12 
REMARK    2  A    between atoms: C_12  and  C_14 
REMARK    3  A    between atoms: C_16  and  O_17 
REMARK    4  A    between atoms: C_24  and  C_25 
REMARK    5  A    between atoms: C_25  and  C_26 
ROOT
HETATM    1  C   UNL     1       4.039   7.645  22.959  0.00  0.00     0.066 A 
HETATM    2  C   UNL     1       3.538   8.089  21.706  0.00  0.00     0.035 A 
HETATM    3  C   UNL     1       5.196   6.863  22.964  0.00  0.00     0.083 A 
HETATM    4  C   UNL     1       5.815   6.425  21.783  0.00  0.00     0.069 A 
HETATM    5  C   UNL     1       5.264   6.846  20.574  0.00  0.00     0.065 A 
HETATM    6  C   UNL     1       4.138   7.662  20.497  0.00  0.00     0.020 A 
HETATM    7  N   UNL     1       5.646   6.628  19.279  0.00  0.00    -0.277 N 
HETATM    8  H   UNL     1       6.439   6.092  18.949  0.00  0.00     0.189 HD
HETATM    9  N   UNL     1       4.870   7.225  18.366  0.00  0.00    -0.178 NA
HETATM   10  C   UNL     1       3.914   7.830  19.095  0.00  0.00     0.071 A 
ENDROOT
BRANCH   1  11
HETATM   11  C   UNL     1       3.376   8.230  24.179  0.00  0.00     0.260 C 
HETATM   12  N   UNL     1       2.485   7.490  25.001  0.00  0.00    -0.318 N 
HETATM   13  C   UNL     1       2.316   6.043  24.858  0.00  0.00     0.159 C 
HETATM   14  O   UNL     1       3.664   9.417  24.375  0.00  0.00    -0.267 OA
BRANCH  12  15
HETATM   15  C   UNL     1       1.704   8.134  26.050  0.00  0.00     0.039 A 
HETATM   16  C   UNL     1       0.547   8.876  25.764  0.00  0.00     0.069 A 
HETATM   17  C   UNL     1      -0.198   9.406  26.811  0.00  0.00     0.107 A 
HETATM   18  O   UNL     1      -1.349  10.122  26.685  0.00  0.00    -0.323 OA
HETATM   19  C   UNL     1       0.157   9.225  28.125  0.00  0.00     0.105 A 
HETATM   20  C   UNL     1      -1.653  10.400  28.067  0.00  0.00     0.352 A 
HETATM   21  O   UNL     1      -0.717   9.805  28.988  0.00  0.00    -0.323 OA
HETATM   22  C   UNL     1       1.280   8.513  28.464  0.00  0.00     0.042 A 
HETATM   23  C   UNL     1       2.055   7.975  27.423  0.00  0.00     0.032 A 
ENDBRANCH  12  15
ENDBRANCH   1  11
BRANCH   3  24
HETATM   24  O   UNL     1       5.811   6.506  24.130  0.00  0.00    -0.360 OA
HETATM   25  H   UNL     1       6.550   5.927  23.881  0.00  0.00     0.217 HD
ENDBRANCH   3  24
BRANCH  10  26
HETATM   26  C   UNL     1       2.835   8.587  18.393  0.00  0.00     0.100 C 
BRANCH  26  27
HETATM   27  C   UNL     1       1.951   7.573  17.697  0.00  0.00    -0.052 A 
HETATM   28  C   UNL     1       1.937   7.504  16.296  0.00  0.00     0.007 A 
HETATM   29  C   UNL     1       1.209   6.512  15.644  0.00  0.00     0.001 A 
HETATM   30  C   UNL     1       0.459   5.595  16.375  0.00  0.00     0.007 A 
HETATM   31  C   UNL     1       0.408   5.676  17.772  0.00  0.00    -0.061 A 
HETATM   32  C   UNL     1       1.169   6.657  18.426  0.00  0.00     0.014 A 
HETATM   33  C   UNL     1      -0.483   4.755  18.555  0.00  0.00     0.048 C 
ENDBRANCH  26  27
ENDBRANCH  10  26
TORSDOF 5
ENDMDL
MODEL 5
REMARK VINA RESULT:    -8.212      3.415      8.314
REMARK INTER + INTRA:         -11.548
REMARK INTER:                 -10.688
REMARK INTRA:                  -0.860
REMARK UNBOUND:                -1.175
REMARK  5 active torsions:
REMARK  status: ('A' for Active; 'I' for Inactive)
REMARK    1  A    between atoms: C_7  and  N_10 
REMARK       I    between atoms: N_10  and  C_12 
REMARK    2  A    between atoms: C_12  and  C_14 
REMARK    3  A    between atoms: C_16  and  O_17 
REMARK    4  A    between atoms: C_24  and  C_25 
REMARK    5  A    between atoms: C_25  and  C_26 
ROOT
HETATM    1  C   UNL     1       4.003   6.974  23.138  0.00  0.00     0.066 A 
HETATM    2  C   UNL     1       3.534   7.583  21.944  0.00  0.00     0.035 A 
HETATM    3  C   UNL     1       5.316   6.500  23.161  0.00  0.00     0.083 A 
HETATM    4  C   UNL     1       6.143   6.515  22.027  0.00  0.00     0.069 A 
HETATM    5  C   UNL     1       5.626   7.080  20.862  0.00  0.00     0.065 A 
HETATM    6  C   UNL     1       4.342   7.610  20.782  0.00  0.00     0.020 A 
HETATM    7  N   UNL     1       6.180   7.275  19.627  0.00  0.00    -0.277 N 
HETATM    8  H   UNL     1       7.114   7.031  19.321  0.00  0.00     0.189 HD
HETATM    9  N   UNL     1       5.372   7.883  18.750  0.00  0.00    -0.178 NA
HETATM   10  C   UNL     1       4.224   8.057  19.429  0.00  0.00     0.071 A 
ENDROOT
BRANCH   1  11
HETATM   11  C   UNL     1       3.092   7.079  24.334  0.00  0.00     0.260 C 
HETATM   12  N   UNL     1       2.780   8.316  24.958  0.00  0.00    -0.318 N 
HETATM   13  C   UNL     1       3.134   9.602  24.356  0.00  0.00     0.159 C 
HETATM   14  O   UNL     1       2.669   5.985  24.729  0.00  0.00    -0.267 OA
BRANCH  12  15
HETATM   15  C   UNL     1       2.065   8.369  26.227  0.00  0.00     0.039 A 
HETATM   16  C   UNL     1       2.741   8.386  27.459  0.00  0.00     0.069 A 
HETATM   17  C   UNL     1       2.010   8.511  28.635  0.00  0.00     0.107 A 
HETATM   18  O   UNL     1       2.530   8.567  29.891  0.00  0.00    -0.323 OA
HETATM   19  C   UNL     1       0.642   8.625  28.635  0.00  0.00     0.105 A 
HETATM   20  C   UNL     1       1.329   8.689  30.681  0.00  0.00     0.352 A 
HETATM   21  O   UNL     1       0.128   8.759  29.885  0.00  0.00    -0.323 OA
HETATM   22  C   UNL     1      -0.071   8.609  27.463  0.00  0.00     0.042 A 
HETATM   23  C   UNL     1       0.644   8.474  26.261  0.00  0.00     0.032 A 
ENDBRANCH  12  15
ENDBRANCH   1  11
BRANCH   3  24
HETATM   24  O   UNL     1       5.882   6.021  24.308  0.00  0.00    -0.360 OA
HETATM   25  H   UNL     1       6.783   5.745  24.072  0.00  0.00     0.217 HD
ENDBRANCH   3  24
BRANCH  10  26
HETATM   26  C   UNL     1       3.062   8.695  18.741  0.00  0.00     0.100 C 
BRANCH  26  27
HETATM   27  C   UNL     1       2.284   7.593  18.054  0.00  0.00    -0.052 A 
HETATM   28  C   UNL     1       2.016   7.678  16.680  0.00  0.00     0.007 A 
HETATM   29  C   UNL     1       1.391   6.627  16.013  0.00  0.00     0.001 A 
HETATM   30  C   UNL     1       0.994   5.490  16.711  0.00  0.00     0.007 A 
HETATM   31  C   UNL     1       1.197   5.401  18.094  0.00  0.00    -0.061 A 
HETATM   32  C   UNL     1       1.856   6.449  18.755  0.00  0.00     0.014 A 
HETATM   33  C   UNL     1       0.675   4.222  18.864  0.00  0.00     0.048 C 
ENDBRANCH  26  27
ENDBRANCH  10  26
TORSDOF 5
ENDMDL
MODEL 6
REMARK VINA RESULT:    -8.115      2.742      4.342
REMARK INTER + INTRA:         -11.425
REMARK INTER:                 -10.349
REMARK INTRA:                  -1.075
REMARK UNBOUND:                -1.175
REMARK  5 active torsions:
REMARK  status: ('A' for Active; 'I' for Inactive)
REMARK    1  A    between atoms: C_7  and  N_10 
REMARK       I    between atoms: N_10  and  C_12 
REMARK    2  A    between atoms: C_12  and  C_14 
REMARK    3  A    between atoms: C_16  and  O_17 
REMARK    4  A    between atoms: C_24  and  C_25 
REMARK    5  A    between atoms: C_25  and  C_26 
ROOT
HETATM    1  C   UNL     1       3.754   6.520  22.793  0.00  0.00     0.066 A 
HETATM    2  C   UNL     1       2.678   6.505  23.720  0.00  0.00     0.035 A 
HETATM    3  C   UNL     1       5.046   6.703  23.289  0.00  0.00     0.083 A 
HETATM    4  C   UNL     1       5.302   6.969  24.644  0.00  0.00     0.069 A 
HETATM    5  C   UNL     1       4.212   6.991  25.512  0.00  0.00     0.065 A 
HETATM    6  C   UNL     1       2.903   6.773  25.091  0.00  0.00     0.020 A 
HETATM    7  N   UNL     1       4.135   7.180  26.865  0.00  0.00    -0.277 N 
HETATM    8  H   UNL     1       4.896   7.347  27.512  0.00  0.00     0.189 HD
HETATM    9  N   UNL     1       2.895   7.107  27.362  0.00  0.00    -0.178 NA
HETATM   10  C   UNL     1       2.121   6.900  26.281  0.00  0.00     0.071 A 
ENDROOT
BRANCH   1  11
HETATM   11  C   UNL     1       3.409   6.139  21.377  0.00  0.00     0.260 C 
HETATM   12  N   UNL     1       3.426   7.068  20.303  0.00  0.00    -0.318 N 
HETATM   13  C   UNL     1       3.993   8.410  20.445  0.00  0.00     0.159 C 
HETATM   14  O   UNL     1       3.089   4.950  21.250  0.00  0.00    -0.267 OA
BRANCH  12  15
HETATM   15  C   UNL     1       2.896   6.724  18.989  0.00  0.00     0.039 A 
HETATM   16  C   UNL     1       1.516   6.619  18.751  0.00  0.00     0.069 A 
HETATM   17  C   UNL     1       1.066   6.360  17.461  0.00  0.00     0.107 A 
HETATM   18  O   UNL     1      -0.236   6.257  17.079  0.00  0.00    -0.323 OA
HETATM   19  C   UNL     1       1.928   6.206  16.404  0.00  0.00     0.105 A 
HETATM   20  C   UNL     1      -0.090   5.984  15.671  0.00  0.00     0.352 A 
HETATM   21  O   UNL     1       1.283   5.982  15.230  0.00  0.00    -0.323 OA
HETATM   22  C   UNL     1       3.286   6.293  16.579  0.00  0.00     0.042 A 
HETATM   23  C   UNL     1       3.767   6.545  17.875  0.00  0.00     0.032 A 
ENDBRANCH  12  15
ENDBRANCH   1  11
BRANCH   3  24
HETATM   24  O   UNL     1       6.142   6.601  22.481  0.00  0.00    -0.360 OA
HETATM   25  H   UNL     1       5.807   6.395  21.593  0.00  0.00     0.217 HD
ENDBRANCH   3  24
BRANCH  10  26
HETATM   26  C   UNL     1       0.641   6.792  26.457  0.00  0.00     0.100 C 
BRANCH  26  27
HETATM   27  C   UNL     1       0.064   8.182  26.283  0.00  0.00    -0.052 A 
HETATM   28  C   UNL     1      -0.122   8.705  24.996  0.00  0.00     0.007 A 
HETATM   29  C   UNL     1      -0.745   9.938  24.816  0.00  0.00     0.001 A 
HETATM   30  C   UNL     1      -1.162  10.681  25.916  0.00  0.00     0.007 A 
HETATM   31  C   UNL     1      -0.939  10.210  27.216  0.00  0.00    -0.061 A 
HETATM   32  C   UNL     1      -0.340   8.953  27.391  0.00  0.00     0.014 A 
HETATM   33  C   UNL     1      -1.293  11.058  28.404  0.00  0.00     0.048 C 
ENDBRANCH  26  27
ENDBRANCH  10  26
TORSDOF 5
ENDMDL
MODEL 7
REMARK VINA RESULT:    -8.016      2.610      5.110
REMARK INTER + INTRA:         -11.300
REMARK INTER:                 -10.391
REMARK INTRA:                  -0.909
REMARK UNBOUND:                -1.175
REMARK  5 active torsions:
REMARK  status: ('A' for Active; 'I' for Inactive)
REMARK    1  A    between atoms: C_7  and  N_10 
REMARK       I    between atoms: N_10  and  C_12 
REMARK    2  A    between atoms: C_12  and  C_14 
REMARK    3  A    between atoms: C_16  and  O_17 
REMARK    4  A    between atoms: C_24  and  C_25 
REMARK    5  A    between atoms: C_25  and  C_26 
ROOT
HETATM    1  C   UNL     1       0.981   9.663  25.291  0.00  0.00     0.066 A 
HETATM    2  C   UNL     1       0.998   9.155  26.617  0.00  0.00     0.035 A 
HETATM    3  C   UNL     1       0.046  10.652  24.978  0.00  0.00     0.083 A 
HETATM    4  C   UNL     1      -0.929  11.083  25.892  0.00  0.00     0.069 A 
HETATM    5  C   UNL     1      -0.905  10.526  27.169  0.00  0.00     0.065 A 
HETATM    6  C   UNL     1       0.027   9.568  27.560  0.00  0.00     0.020 A 
HETATM    7  N   UNL     1      -1.677  10.757  28.274  0.00  0.00    -0.277 N 
HETATM    8  H   UNL     1      -2.447  11.409  28.366  0.00  0.00     0.189 HD
HETATM    9  N   UNL     1      -1.336  10.035  29.347  0.00  0.00    -0.178 NA
HETATM   10  C   UNL     1      -0.318   9.269  28.916  0.00  0.00     0.071 A 
ENDROOT
BRANCH   1  11
HETATM   11  C   UNL     1       2.111   9.219  24.400  0.00  0.00     0.260 C 
HETATM   12  N   UNL     1       2.390   7.852  24.133  0.00  0.00    -0.318 N 
HETATM   13  C   UNL     1       1.470   6.781  24.519  0.00  0.00     0.159 C 
HETATM   14  O   UNL     1       2.782  10.156  23.949  0.00  0.00    -0.267 OA
BRANCH  12  15
HETATM   15  C   UNL     1       3.605   7.444  23.437  0.00  0.00     0.039 A 
HETATM   16  C   UNL     1       3.946   7.960  22.176  0.00  0.00     0.069 A 
HETATM   17  C   UNL     1       5.153   7.591  21.593  0.00  0.00     0.107 A 
HETATM   18  O   UNL     1       5.623   8.029  20.394  0.00  0.00    -0.323 OA
HETATM   19  C   UNL     1       6.031   6.736  22.212  0.00  0.00     0.105 A 
HETATM   20  C   UNL     1       6.877   7.323  20.314  0.00  0.00     0.352 A 
HETATM   21  O   UNL     1       7.157   6.524  21.482  0.00  0.00    -0.323 OA
HETATM   22  C   UNL     1       5.748   6.196  23.441  0.00  0.00     0.042 A 
HETATM   23  C   UNL     1       4.530   6.547  24.048  0.00  0.00     0.032 A 
ENDBRANCH  12  15
ENDBRANCH   1  11
BRANCH   3  24
HETATM   24  O   UNL     1       0.050  11.281  23.766  0.00  0.00    -0.360 OA
HETATM   25  H   UNL     1       0.894  11.759  23.711  0.00  0.00     0.217 HD
ENDBRANCH   3  24
BRANCH  10  26
HETATM   26  C   UNL     1       0.311   8.296  29.859  0.00  0.00     0.100 C 
BRANCH  26  27
HETATM   27  C   UNL     1       0.660   7.056  29.063  0.00  0.00    -0.052 A 
HETATM   28  C   UNL     1       1.996   6.641  28.966  0.00  0.00     0.007 A 
HETATM   29  C   UNL     1       2.322   5.449  28.324  0.00  0.00     0.001 A 
HETATM   30  C   UNL     1       1.327   4.670  27.742  0.00  0.00     0.007 A 
HETATM   31  C   UNL     1      -0.009   5.087  27.773  0.00  0.00    -0.061 A 
HETATM   32  C   UNL     1      -0.336   6.273  28.448  0.00  0.00     0.014 A 
HETATM   33  C   UNL     1      -1.068   4.302  27.054  0.00  0.00     0.048 C 
ENDBRANCH  26  27
ENDBRANCH  10  26
TORSDOF 5
ENDMDL
MODEL 8
REMARK VINA RESULT:    -7.997      3.308      8.150
REMARK INTER + INTRA:         -11.276
REMARK INTER:                 -10.309
REMARK INTRA:                  -0.967
REMARK UNBOUND:                -1.175
REMARK  5 active torsions:
REMARK  status: ('A' for Active; 'I' for Inactive)
REMARK    1  A    between atoms: C_7  and  N_10 
REMARK       I    between atoms: N_10  and  C_12 
REMARK    2  A    between atoms: C_12  and  C_14 
REMARK    3  A    between atoms: C_16  and  O_17 
REMARK    4  A    between atoms: C_24  and  C_25 
REMARK    5  A    between atoms: C_25  and  C_26 
ROOT
HETATM    1  C   UNL     1       3.543   6.470  23.714  0.00  0.00     0.066 A 
HETATM    2  C   UNL     1       3.028   6.002  22.476  0.00  0.00     0.035 A 
HETATM    3  C   UNL     1       4.928   6.586  23.849  0.00  0.00     0.083 A 
HETATM    4  C   UNL     1       5.820   6.166  22.849  0.00  0.00     0.069 A 
HETATM    5  C   UNL     1       5.273   5.670  21.667  0.00  0.00     0.065 A 
HETATM    6  C   UNL     1       3.901   5.568  21.450  0.00  0.00     0.020 A 
HETATM    7  N   UNL     1       5.859   5.224  20.514  0.00  0.00    -0.277 N 
HETATM    8  H   UNL     1       6.848   5.172  20.302  0.00  0.00     0.189 HD
HETATM    9  N   UNL     1       4.994   4.840  19.568  0.00  0.00    -0.178 NA
HETATM   10  C   UNL     1       3.788   5.004  20.141  0.00  0.00     0.071 A 
ENDROOT
BRANCH   1  11
HETATM   11  C   UNL     1       2.526   6.984  24.699  0.00  0.00     0.260 C 
HETATM   12  N   UNL     1       2.316   8.368  24.937  0.00  0.00    -0.318 N 
HETATM   13  C   UNL     1       2.908   9.402  24.088  0.00  0.00     0.159 C 
HETATM   14  O   UNL     1       1.915   6.086  25.293  0.00  0.00    -0.267 OA
BRANCH  12  15
HETATM   15  C   UNL     1       1.476   8.834  26.034  0.00  0.00     0.039 A 
HETATM   16  C   UNL     1       0.233   9.448  25.808  0.00  0.00     0.069 A 
HETATM   17  C   UNL     1      -0.558   9.806  26.894  0.00  0.00     0.107 A 
HETATM   18  O   UNL     1      -1.789  10.383  26.825  0.00  0.00    -0.323 OA
HETATM   19  C   UNL     1      -0.167   9.574  28.189  0.00  0.00     0.105 A 
HETATM   20  C   UNL     1      -2.107  10.521  28.225  0.00  0.00     0.352 A 
HETATM   21  O   UNL     1      -1.094   9.979  29.097  0.00  0.00    -0.323 OA
HETATM   22  C   UNL     1       1.039   8.983  28.471  0.00  0.00     0.042 A 
HETATM   23  C   UNL     1       1.861   8.620  27.390  0.00  0.00     0.032 A 
ENDBRANCH  12  15
ENDBRANCH   1  11
BRANCH   3  24
HETATM   24  O   UNL     1       5.493   7.149  24.957  0.00  0.00    -0.360 OA
HETATM   25  H   UNL     1       5.338   6.527  25.687  0.00  0.00     0.217 HD
ENDBRANCH   3  24
BRANCH  10  26
HETATM   26  C   UNL     1       2.561   4.641  19.370  0.00  0.00     0.100 C 
BRANCH  26  27
HETATM   27  C   UNL     1       2.351   5.716  18.324  0.00  0.00    -0.052 A 
HETATM   28  C   UNL     1       2.172   5.358  16.980  0.00  0.00     0.007 A 
HETATM   29  C   UNL     1       1.876   6.325  16.023  0.00  0.00     0.001 A 
HETATM   30  C   UNL     1       1.787   7.666  16.384  0.00  0.00     0.007 A 
HETATM   31  C   UNL     1       2.017   8.060  17.708  0.00  0.00    -0.061 A 
HETATM   32  C   UNL     1       2.283   7.078  18.674  0.00  0.00     0.014 A 
HETATM   33  C   UNL     1       2.025   9.516  18.077  0.00  0.00     0.048 C 
ENDBRANCH  26  27
ENDBRANCH  10  26
TORSDOF 5
ENDMDL
MODEL 9
REMARK VINA RESULT:    -7.786      4.247      8.314
REMARK INTER + INTRA:         -11.009
REMARK INTER:                  -9.834
REMARK INTRA:                  -1.175
REMARK UNBOUND:                -1.175
REMARK  5 active torsions:
REMARK  status: ('A' for Active; 'I' for Inactive)
REMARK    1  A    between atoms: C_7  and  N_10 
REMARK       I    between atoms: N_10  and  C_12 
REMARK    2  A    between atoms: C_12  and  C_14 
REMARK    3  A    between atoms: C_16  and  O_17 
REMARK    4  A    between atoms: C_24  and  C_25 
REMARK    5  A    between atoms: C_25  and  C_26 
ROOT
HETATM    1  C   UNL     1       4.450   6.846  22.898  0.00  0.00     0.066 A 
HETATM    2  C   UNL     1       3.815   7.440  21.776  0.00  0.00     0.035 A 
HETATM    3  C   UNL     1       5.766   6.403  22.751  0.00  0.00     0.083 A 
HETATM    4  C   UNL     1       6.438   6.436  21.519  0.00  0.00     0.069 A 
HETATM    5  C   UNL     1       5.761   6.986  20.432  0.00  0.00     0.065 A 
HETATM    6  C   UNL     1       4.465   7.485  20.519  0.00  0.00     0.020 A 
HETATM    7  N   UNL     1       6.146   7.192  19.135  0.00  0.00    -0.277 N 
HETATM    8  H   UNL     1       7.038   6.970  18.710  0.00  0.00     0.189 HD
HETATM    9  N   UNL     1       5.217   7.778  18.371  0.00  0.00    -0.178 NA
HETATM   10  C   UNL     1       4.162   7.927  19.193  0.00  0.00     0.071 A 
ENDROOT
BRANCH   1  11
HETATM   11  C   UNL     1       3.700   6.930  24.202  0.00  0.00     0.260 C 
HETATM   12  N   UNL     1       2.980   5.835  24.749  0.00  0.00    -0.318 N 
HETATM   13  C   UNL     1       3.096   4.480  24.207  0.00  0.00     0.159 C 
HETATM   14  O   UNL     1       3.752   8.048  24.730  0.00  0.00    -0.267 OA
BRANCH  12  15
HETATM   15  C   UNL     1       2.101   5.999  25.900  0.00  0.00     0.039 A 
HETATM   16  C   UNL     1       2.524   5.700  27.206  0.00  0.00     0.069 A 
HETATM   17  C   UNL     1       1.666   5.945  28.273  0.00  0.00     0.107 A 
HETATM   18  O   UNL     1       1.950   5.729  29.586  0.00  0.00    -0.323 OA
HETATM   19  C   UNL     1       0.414   6.479  28.095  0.00  0.00     0.105 A 
HETATM   20  C   UNL     1       0.719   6.151  30.207  0.00  0.00     0.352 A 
HETATM   21  O   UNL     1      -0.250   6.659  29.266  0.00  0.00    -0.323 OA
HETATM   22  C   UNL     1      -0.054   6.786  26.842  0.00  0.00     0.042 A 
HETATM   23  C   UNL     1       0.790   6.538  25.746  0.00  0.00     0.032 A 
ENDBRANCH  12  15
ENDBRANCH   1  11
BRANCH   3  24
HETATM   24  O   UNL     1       6.487   5.940  23.814  0.00  0.00    -0.360 OA
HETATM   25  H   UNL     1       7.144   6.627  24.016  0.00  0.00     0.217 HD
ENDBRANCH   3  24
BRANCH  10  26
HETATM   26  C   UNL     1       2.906   8.535  18.662  0.00  0.00     0.100 C 
BRANCH  26  27
HETATM   27  C   UNL     1       2.039   7.405  18.148  0.00  0.00    -0.052 A 
HETATM   28  C   UNL     1       1.370   6.570  19.054  0.00  0.00     0.007 A 
HETATM   29  C   UNL     1       0.490   5.592  18.598  0.00  0.00     0.001 A 
HETATM   30  C   UNL     1       0.289   5.409  17.233  0.00  0.00     0.007 A 
HETATM   31  C   UNL     1       0.987   6.189  16.303  0.00  0.00    -0.061 A 
HETATM   32  C   UNL     1       1.848   7.195  16.768  0.00  0.00     0.014 A 
HETATM   33  C   UNL     1       0.852   5.922  14.831  0.00  0.00     0.048 C 
ENDBRANCH  26  27
ENDBRANCH  10  26
TORSDOF 5
ENDMDL
