REMARK  5 active torsions:
REMARK  status: ('A' for Active; 'I' for Inactive)
REMARK    1  A    between atoms: C_7  and  N_10 
REMARK       I    between atoms: N_10  and  C_12 
REMARK    2  A    between atoms: C_12  and  C_14 
REMARK    3  A    between atoms: C_16  and  O_17 
REMARK    4  A    between atoms: C_24  and  C_25 
REMARK    5  A    between atoms: C_25  and  C_26 
ROOT
HETATM    1  C   UNL     1       6.075  -0.919   0.072  0.00  0.00     0.066 A 
HETATM    2  C   UNL     1       7.101   0.061   0.132  0.00  0.00     0.035 A 
HETATM    3  C   UNL     1       6.452  -2.261  -0.009  0.00  0.00     0.083 A 
HETATM    4  C   UNL     1       7.792  -2.661  -0.132  0.00  0.00     0.069 A 
HETATM    5  C   UNL     1       8.765  -1.663  -0.115  0.00  0.00     0.065 A 
HETATM    6  C   UNL     1       8.461  -0.310   0.007  0.00  0.00     0.020 A 
HETATM    7  N   UNL     1      10.130  -1.727  -0.176  0.00  0.00    -0.277 N 
HETATM    8  H   UNL     1      10.709  -2.555  -0.249  0.00  0.00     0.189 HD
HETATM    9  N   UNL     1      10.742  -0.539  -0.107  0.00  0.00    -0.178 NA
HETATM   10  C   UNL     1       9.731   0.346  -0.037  0.00  0.00     0.071 A 
ENDROOT
BRANCH   1  11
HETATM   11  C   UNL     1       4.672  -0.420   0.301  0.00  0.00     0.260 C 
HETATM   12  N   UNL     1       3.575  -0.805  -0.515  0.00  0.00    -0.318 N 
HETATM   13  C   UNL     1       3.678  -1.885  -1.497  0.00  0.00     0.159 C 
HETATM   14  O   UNL     1       4.578   0.372   1.247  0.00  0.00    -0.267 OA
BRANCH  12  15
HETATM   15  C   UNL     1       2.275  -0.155  -0.400  0.00  0.00     0.039 A 
HETATM   16  C   UNL     1       2.143   1.160   0.076  0.00  0.00     0.069 A 
HETATM   17  C   UNL     1       0.886   1.754   0.095  0.00  0.00     0.107 A 
HETATM   18  O   UNL     1       0.613   3.023   0.504  0.00  0.00    -0.323 OA
HETATM   19  C   UNL     1      -0.238   1.098  -0.342  0.00  0.00     0.105 A 
HETATM   20  C   UNL     1      -0.815   3.074   0.309  0.00  0.00     0.352 A 
HETATM   21  O   UNL     1      -1.357   1.864  -0.259  0.00  0.00    -0.323 OA
HETATM   22  C   UNL     1      -0.170  -0.189  -0.812  0.00  0.00     0.042 A 
HETATM   23  C   UNL     1       1.088  -0.815  -0.833  0.00  0.00     0.032 A 
ENDBRANCH  12  15
ENDBRANCH   1  11
BRANCH   3  24
HETATM   24  O   UNL     1       5.531  -3.267   0.060  0.00  0.00    -0.360 OA
HETATM   25  H   UNL     1       5.688  -3.722   0.904  0.00  0.00     0.217 HD
ENDBRANCH   3  24
BRANCH  10  26
HETATM   26  C   UNL     1      10.045   1.805   0.026  0.00  0.00     0.100 C 
BRANCH  26  27
HETATM   27  C   UNL     1       9.967   2.345  -1.387  0.00  0.00    -0.052 A 
HETATM   28  C   UNL     1       8.871   3.128  -1.776  0.00  0.00     0.007 A 
HETATM   29  C   UNL     1       8.833   3.716  -3.038  0.00  0.00     0.001 A 
HETATM   30  C   UNL     1       9.870   3.506  -3.942  0.00  0.00     0.007 A 
HETATM   31  C   UNL     1      10.950   2.682  -3.602  0.00  0.00    -0.061 A 
HETATM   32  C   UNL     1      10.999   2.118  -2.318  0.00  0.00     0.014 A 
HETATM   33  C   UNL     1      12.016   2.370  -4.613  0.00  0.00     0.048 C 
ENDBRANCH  26  27
ENDBRANCH  10  26
TORSDOF 5
