MODEL 1
REMARK VINA RESULT:    -9.644      0.000      0.000
REMARK INTER + INTRA:         -14.072
REMARK INTER:                 -12.870
REMARK INTRA:                  -1.202
REMARK UNBOUND:                -1.327
REMARK  6 active torsions:
REMARK  status: ('A' for Active; 'I' for Inactive)
REMARK    1  A    between atoms: N_6  and  C_7 
REMARK    2  A    between atoms: C_12  and  N_13 
REMARK       I    between atoms: N_13  and  C_15 
REMARK    3  A    between atoms: C_15  and  C_17 
REMARK    4  A    between atoms: C_19  and  O_20 
REMARK    5  A    between atoms: C_27  and  C_28 
REMARK    6  A    between atoms: C_28  and  C_29 
ROOT
HETATM    1  C   UNL     1       7.140  14.313  24.687  0.00  0.00     0.066 C 
HETATM    2  C   UNL     1       7.841  15.025  23.691  0.00  0.00     0.035 C 
HETATM    3  C   UNL     1       7.766  14.145  25.938  0.00  0.00     0.083 C 
HETATM    4  C   UNL     1       9.076  14.578  26.184  0.00  0.00     0.069 C 
HETATM    5  C   UNL     1       9.780  15.112  25.100  0.00  0.00     0.065 A 
HETATM    6  C   UNL     1       9.213  15.309  23.844  0.00  0.00     0.020 A 
HETATM    7  N   UNL     1      11.066  15.556  24.982  0.00  0.00    -0.277 N 
HETATM    8  H   UNL     1      11.764  15.624  25.713  0.00  0.00     0.189 HD
HETATM    9  N   UNL     1      11.417  15.898  23.732  0.00  0.00    -0.178 NA
HETATM   10  C   UNL     1      10.296  15.729  23.006  0.00  0.00     0.071 A 
ENDROOT
BRANCH   1  11
HETATM   11  C   UNL     1       5.766  13.694  24.462  0.00  0.00     0.260 C 
HETATM   12  N   UNL     1       4.576  14.341  24.910  0.00  0.00    -0.318 N 
HETATM   13  C   UNL     1       4.624  15.667  25.550  0.00  0.00     0.159 C 
HETATM   14  O   UNL     1       5.798  12.647  23.826  0.00  0.00    -0.267 OA
BRANCH  12  15
HETATM   15  C   UNL     1       3.233  13.826  24.651  0.00  0.00     0.037 C 
HETATM   16  C   UNL     1       2.278  14.617  23.978  0.00  0.00     0.032 C 
HETATM   17  C   UNL     1       1.053  14.103  23.516  0.00  0.00     0.031 C 
HETATM   18  C   UNL     1       0.679  12.783  23.739  0.00  0.00     0.030 C 
HETATM   19  C   UNL     1       1.560  12.044  24.540  0.00  0.00     0.031 C 
HETATM   20  C   UNL     1       2.804  12.546  24.985  0.00  0.00     0.032 C 
BRANCH  18  21
HETATM   21  N   UNL     1      -0.487  12.249  23.240  0.00  0.00    -0.377 N 
HETATM   22  C   UNL     1      -1.121  12.659  21.976  0.00  0.00     0.149 C 
HETATM   23  C   UNL     1      -2.631  12.846  22.223  0.00  0.00     0.187 C 
HETATM   24  O   UNL     1      -3.240  11.671  22.790  0.00  0.00    -0.388 OA
HETATM   25  C   UNL     1      -2.593  11.312  24.026  0.00  0.00     0.187 C 
HETATM   26  C   UNL     1      -1.101  11.035  23.803  0.00  0.00     0.149 C 
ENDBRANCH  18  21
ENDBRANCH  12  15
ENDBRANCH   1  11
BRANCH   3  27
HETATM   27  O   UNL     1       7.152  13.552  27.016  0.00  0.00    -0.360 OA
HETATM   28  H   UNL     1       7.488  13.988  27.831  0.00  0.00     0.217 HD
ENDBRANCH   3  27
BRANCH  10  29
HETATM   29  C   UNL     1      10.347  15.979  21.518  0.00  0.00     0.100 C 
BRANCH  29  30
HETATM   30  C   UNL     1      10.243  14.685  20.711  0.00  0.00    -0.052 A 
HETATM   31  C   UNL     1       9.062  14.268  20.081  0.00  0.00     0.007 A 
HETATM   32  C   UNL     1       9.008  13.073  19.357  0.00  0.00     0.001 A 
HETATM   33  C   UNL     1      10.107  12.221  19.320  0.00  0.00     0.007 A 
HETATM   34  C   UNL     1      11.263  12.536  20.038  0.00  0.00    -0.061 A 
HETATM   35  C   UNL     1      11.336  13.782  20.695  0.00  0.00     0.014 A 
HETATM   36  C   UNL     1      12.381  11.531  20.087  0.00  0.00     0.048 C 
ENDBRANCH  29  30
ENDBRANCH  10  29
TORSDOF 6
ENDMDL
MODEL 2
REMARK VINA RESULT:    -9.276      1.260      1.855
REMARK INTER + INTRA:         -13.586
REMARK INTER:                 -12.220
REMARK INTRA:                  -1.366
REMARK UNBOUND:                -1.327
REMARK  6 active torsions:
REMARK  status: ('A' for Active; 'I' for Inactive)
REMARK    1  A    between atoms: N_6  and  C_7 
REMARK    2  A    between atoms: C_12  and  N_13 
REMARK       I    between atoms: N_13  and  C_15 
REMARK    3  A    between atoms: C_15  and  C_17 
REMARK    4  A    between atoms: C_19  and  O_20 
REMARK    5  A    between atoms: C_27  and  C_28 
REMARK    6  A    between atoms: C_28  and  C_29 
ROOT
HETATM    1  C   UNL     1       7.629  14.932  24.929  0.00  0.00     0.066 C 
HETATM    2  C   UNL     1       8.435  15.406  23.871  0.00  0.00     0.035 C 
HETATM    3  C   UNL     1       8.270  14.574  26.132  0.00  0.00     0.083 C 
HETATM    4  C   UNL     1       9.664  14.588  26.272  0.00  0.00     0.069 C 
HETATM    5  C   UNL     1      10.411  14.891  25.129  0.00  0.00     0.065 A 
HETATM    6  C   UNL     1       9.836  15.259  23.916  0.00  0.00     0.020 A 
HETATM    7  N   UNL     1      11.759  14.926  24.907  0.00  0.00    -0.277 N 
HETATM    8  H   UNL     1      12.498  14.775  25.583  0.00  0.00     0.189 HD
HETATM    9  N   UNL     1      12.100  15.154  23.629  0.00  0.00    -0.178 NA
HETATM   10  C   UNL     1      10.928  15.338  22.992  0.00  0.00     0.071 A 
ENDROOT
BRANCH   1  11
HETATM   11  C   UNL     1       6.120  14.760  24.818  0.00  0.00     0.260 C 
HETATM   12  N   UNL     1       5.547  13.709  24.042  0.00  0.00    -0.318 N 
HETATM   13  C   UNL     1       6.393  12.708  23.370  0.00  0.00     0.159 C 
HETATM   14  O   UNL     1       5.483  15.561  25.492  0.00  0.00    -0.267 OA
BRANCH  12  15
HETATM   15  C   UNL     1       4.110  13.456  23.965  0.00  0.00     0.037 C 
HETATM   16  C   UNL     1       3.595  12.163  24.193  0.00  0.00     0.032 C 
HETATM   17  C   UNL     1       2.220  11.906  24.343  0.00  0.00     0.031 C 
HETATM   18  C   UNL     1       1.267  12.911  24.225  0.00  0.00     0.030 C 
HETATM   19  C   UNL     1       1.770  14.163  23.846  0.00  0.00     0.031 C 
HETATM   20  C   UNL     1       3.151  14.434  23.720  0.00  0.00     0.032 C 
BRANCH  18  21
HETATM   21  N   UNL     1      -0.075  12.687  24.430  0.00  0.00    -0.377 N 
HETATM   22  C   UNL     1      -0.746  12.764  25.739  0.00  0.00     0.149 C 
HETATM   23  C   UNL     1      -1.664  11.534  25.891  0.00  0.00     0.187 C 
HETATM   24  O   UNL     1      -2.596  11.412  24.800  0.00  0.00    -0.388 OA
HETATM   25  C   UNL     1      -1.896  11.334  23.544  0.00  0.00     0.187 C 
HETATM   26  C   UNL     1      -1.035  12.583  23.318  0.00  0.00     0.149 C 
ENDBRANCH  18  21
ENDBRANCH  12  15
ENDBRANCH   1  11
BRANCH   3  27
HETATM   27  O   UNL     1       7.590  14.186  27.262  0.00  0.00    -0.360 OA
HETATM   28  H   UNL     1       7.097  13.362  27.049  0.00  0.00     0.217 HD
ENDBRANCH   3  27
BRANCH  10  29
HETATM   29  C   UNL     1      10.938  15.571  21.500  0.00  0.00     0.100 C 
BRANCH  29  30
HETATM   30  C   UNL     1      10.197  14.471  20.739  0.00  0.00    -0.052 A 
HETATM   31  C   UNL     1       9.069  14.717  19.943  0.00  0.00     0.007 A 
HETATM   32  C   UNL     1       8.418  13.682  19.268  0.00  0.00     0.001 A 
HETATM   33  C   UNL     1       8.822  12.362  19.442  0.00  0.00     0.007 A 
HETATM   34  C   UNL     1       9.861  12.058  20.326  0.00  0.00    -0.061 A 
HETATM   35  C   UNL     1      10.565  13.117  20.937  0.00  0.00     0.014 A 
HETATM   36  C   UNL     1      10.182  10.614  20.595  0.00  0.00     0.048 C 
ENDBRANCH  29  30
ENDBRANCH  10  29
TORSDOF 6
ENDMDL
MODEL 3
REMARK VINA RESULT:    -8.981      5.074      6.739
REMARK INTER + INTRA:         -13.196
REMARK INTER:                 -11.828
REMARK INTRA:                  -1.369
REMARK UNBOUND:                -1.327
REMARK  6 active torsions:
REMARK  status: ('A' for Active; 'I' for Inactive)
REMARK    1  A    between atoms: N_6  and  C_7 
REMARK    2  A    between atoms: C_12  and  N_13 
REMARK       I    between atoms: N_13  and  C_15 
REMARK    3  A    between atoms: C_15  and  C_17 
REMARK    4  A    between atoms: C_19  and  O_20 
REMARK    5  A    between atoms: C_27  and  C_28 
REMARK    6  A    between atoms: C_28  and  C_29 
ROOT
HETATM    1  C   UNL     1       8.341  10.626  22.827  0.00  0.00     0.066 C 
HETATM    2  C   UNL     1       8.215  11.464  23.957  0.00  0.00     0.035 C 
HETATM    3  C   UNL     1       9.478  10.791  22.012  0.00  0.00     0.083 C 
HETATM    4  C   UNL     1      10.421  11.805  22.235  0.00  0.00     0.069 C 
HETATM    5  C   UNL     1      10.140  12.713  23.260  0.00  0.00     0.065 A 
HETATM    6  C   UNL     1       9.038  12.599  24.103  0.00  0.00     0.020 A 
HETATM    7  N   UNL     1      10.798  13.832  23.688  0.00  0.00    -0.277 N 
HETATM    8  H   UNL     1      11.681  14.194  23.349  0.00  0.00     0.189 HD
HETATM    9  N   UNL     1      10.151  14.519  24.643  0.00  0.00    -0.178 NA
HETATM   10  C   UNL     1       9.048  13.790  24.898  0.00  0.00     0.071 A 
ENDROOT
BRANCH   1  11
HETATM   11  C   UNL     1       7.298   9.588  22.436  0.00  0.00     0.260 C 
HETATM   12  N   UNL     1       6.046   9.969  21.866  0.00  0.00    -0.318 N 
HETATM   13  C   UNL     1       5.740  11.380  21.572  0.00  0.00     0.159 C 
HETATM   14  O   UNL     1       7.667   8.432  22.607  0.00  0.00    -0.267 OA
BRANCH  12  15
HETATM   15  C   UNL     1       5.046   9.009  21.406  0.00  0.00     0.037 C 
HETATM   16  C   UNL     1       4.948   8.674  20.039  0.00  0.00     0.032 C 
HETATM   17  C   UNL     1       4.157   7.609  19.570  0.00  0.00     0.031 C 
HETATM   18  C   UNL     1       3.375   6.842  20.426  0.00  0.00     0.030 C 
HETATM   19  C   UNL     1       3.355   7.275  21.759  0.00  0.00     0.031 C 
HETATM   20  C   UNL     1       4.167   8.327  22.241  0.00  0.00     0.032 C 
BRANCH  18  21
HETATM   21  N   UNL     1       2.645   5.759  19.992  0.00  0.00    -0.377 N 
HETATM   22  C   UNL     1       3.195   4.409  19.786  0.00  0.00     0.149 C 
HETATM   23  C   UNL     1       2.685   3.874  18.433  0.00  0.00     0.187 C 
HETATM   24  O   UNL     1       1.248   3.905  18.341  0.00  0.00    -0.388 OA
HETATM   25  C   UNL     1       0.757   5.244  18.543  0.00  0.00     0.187 C 
HETATM   26  C   UNL     1       1.175   5.780  19.918  0.00  0.00     0.149 C 
ENDBRANCH  18  21
ENDBRANCH  12  15
ENDBRANCH   1  11
BRANCH   3  27
HETATM   27  O   UNL     1       9.761   9.980  20.938  0.00  0.00    -0.360 OA
HETATM   28  H   UNL     1       9.592   9.050  21.212  0.00  0.00     0.217 HD
ENDBRANCH   3  27
BRANCH  10  29
HETATM   29  C   UNL     1       8.049  14.308  25.905  0.00  0.00     0.100 C 
BRANCH  29  30
HETATM   30  C   UNL     1       6.770  14.817  25.239  0.00  0.00    -0.052 A 
HETATM   31  C   UNL     1       6.700  15.171  23.884  0.00  0.00     0.007 A 
HETATM   32  C   UNL     1       5.511  15.637  23.316  0.00  0.00     0.001 A 
HETATM   33  C   UNL     1       4.386  15.846  24.107  0.00  0.00     0.007 A 
HETATM   34  C   UNL     1       4.447  15.627  25.485  0.00  0.00    -0.061 A 
HETATM   35  C   UNL     1       5.625  15.077  26.034  0.00  0.00     0.014 A 
HETATM   36  C   UNL     1       3.258  15.991  26.330  0.00  0.00     0.048 C 
ENDBRANCH  29  30
ENDBRANCH  10  29
TORSDOF 6
ENDMDL
MODEL 4
REMARK VINA RESULT:    -8.869      5.435      7.359
REMARK INTER + INTRA:         -13.048
REMARK INTER:                 -12.032
REMARK INTRA:                  -1.016
REMARK UNBOUND:                -1.327
REMARK  6 active torsions:
REMARK  status: ('A' for Active; 'I' for Inactive)
REMARK    1  A    between atoms: N_6  and  C_7 
REMARK    2  A    between atoms: C_12  and  N_13 
REMARK       I    between atoms: N_13  and  C_15 
REMARK    3  A    between atoms: C_15  and  C_17 
REMARK    4  A    between atoms: C_19  and  O_20 
REMARK    5  A    between atoms: C_27  and  C_28 
REMARK    6  A    between atoms: C_28  and  C_29 
ROOT
HETATM    1  C   UNL     1       6.761  10.964  21.963  0.00  0.00     0.066 C 
HETATM    2  C   UNL     1       6.242  12.199  22.410  0.00  0.00     0.035 C 
HETATM    3  C   UNL     1       8.109  10.675  22.254  0.00  0.00     0.083 C 
HETATM    4  C   UNL     1       8.955  11.599  22.882  0.00  0.00     0.069 C 
HETATM    5  C   UNL     1       8.428  12.869  23.133  0.00  0.00     0.065 A 
HETATM    6  C   UNL     1       7.104  13.213  22.874  0.00  0.00     0.020 A 
HETATM    7  N   UNL     1       8.991  13.999  23.657  0.00  0.00    -0.277 N 
HETATM    8  H   UNL     1       9.930  14.107  24.021  0.00  0.00     0.189 HD
HETATM    9  N   UNL     1       8.186  15.074  23.638  0.00  0.00    -0.178 NA
HETATM   10  C   UNL     1       7.023  14.619  23.134  0.00  0.00     0.071 A 
ENDROOT
BRANCH   1  11
HETATM   11  C   UNL     1       5.947   9.958  21.159  0.00  0.00     0.260 C 
HETATM   12  N   UNL     1       5.401   8.788  21.766  0.00  0.00    -0.318 N 
HETATM   13  C   UNL     1       5.545   8.541  23.211  0.00  0.00     0.159 C 
HETATM   14  O   UNL     1       5.777  10.287  19.991  0.00  0.00    -0.267 OA
BRANCH  12  15
HETATM   15  C   UNL     1       4.552   7.834  21.056  0.00  0.00     0.037 C 
HETATM   16  C   UNL     1       3.409   7.289  21.678  0.00  0.00     0.032 C 
HETATM   17  C   UNL     1       2.446   6.540  20.978  0.00  0.00     0.031 C 
HETATM   18  C   UNL     1       2.585   6.243  19.627  0.00  0.00     0.030 C 
HETATM   19  C   UNL     1       3.795   6.654  19.051  0.00  0.00     0.031 C 
HETATM   20  C   UNL     1       4.754   7.429  19.741  0.00  0.00     0.032 C 
BRANCH  18  21
HETATM   21  N   UNL     1       1.622   5.564  18.915  0.00  0.00    -0.377 N 
HETATM   22  C   UNL     1       0.688   4.585  19.495  0.00  0.00     0.149 C 
HETATM   23  C   UNL     1       0.642   3.349  18.575  0.00  0.00     0.187 C 
HETATM   24  O   UNL     1       0.309   3.692  17.217  0.00  0.00    -0.388 OA
HETATM   25  C   UNL     1       1.251   4.645  16.691  0.00  0.00     0.187 C 
HETATM   26  C   UNL     1       1.264   5.926  17.534  0.00  0.00     0.149 C 
ENDBRANCH  18  21
ENDBRANCH  12  15
ENDBRANCH   1  11
BRANCH   3  27
HETATM   27  O   UNL     1       8.704   9.472  21.954  0.00  0.00    -0.360 OA
HETATM   28  H   UNL     1       8.007   8.870  21.609  0.00  0.00     0.217 HD
ENDBRANCH   3  27
BRANCH  10  29
HETATM   29  C   UNL     1       5.890  15.594  22.923  0.00  0.00     0.100 C 
BRANCH  29  30
HETATM   30  C   UNL     1       4.790  15.437  23.973  0.00  0.00    -0.052 A 
HETATM   31  C   UNL     1       5.013  15.607  25.347  0.00  0.00     0.007 A 
HETATM   32  C   UNL     1       3.981  15.449  26.275  0.00  0.00     0.001 A 
HETATM   33  C   UNL     1       2.720  15.029  25.862  0.00  0.00     0.007 A 
HETATM   34  C   UNL     1       2.487  14.725  24.519  0.00  0.00    -0.061 A 
HETATM   35  C   UNL     1       3.512  14.968  23.580  0.00  0.00     0.014 A 
HETATM   36  C   UNL     1       1.156  14.144  24.128  0.00  0.00     0.048 C 
ENDBRANCH  29  30
ENDBRANCH  10  29
TORSDOF 6
ENDMDL
MODEL 5
REMARK VINA RESULT:    -8.851      2.088      3.329
REMARK INTER + INTRA:         -13.025
REMARK INTER:                 -11.657
REMARK INTRA:                  -1.368
REMARK UNBOUND:                -1.327
REMARK  6 active torsions:
REMARK  status: ('A' for Active; 'I' for Inactive)
REMARK    1  A    between atoms: N_6  and  C_7 
REMARK    2  A    between atoms: C_12  and  N_13 
REMARK       I    between atoms: N_13  and  C_15 
REMARK    3  A    between atoms: C_15  and  C_17 
REMARK    4  A    between atoms: C_19  and  O_20 
REMARK    5  A    between atoms: C_27  and  C_28 
REMARK    6  A    between atoms: C_28  and  C_29 
ROOT
HETATM    1  C   UNL     1       8.983  13.768  25.768  0.00  0.00     0.066 C 
HETATM    2  C   UNL     1       9.809  12.956  24.961  0.00  0.00     0.035 C 
HETATM    3  C   UNL     1       9.605  14.568  26.748  0.00  0.00     0.083 C 
HETATM    4  C   UNL     1      10.982  14.510  26.999  0.00  0.00     0.069 C 
HETATM    5  C   UNL     1      11.714  13.552  26.290  0.00  0.00     0.065 A 
HETATM    6  C   UNL     1      11.158  12.739  25.306  0.00  0.00     0.020 A 
HETATM    7  N   UNL     1      13.031  13.194  26.343  0.00  0.00    -0.277 N 
HETATM    8  H   UNL     1      13.763  13.616  26.903  0.00  0.00     0.189 HD
HETATM    9  N   UNL     1      13.345  12.137  25.576  0.00  0.00    -0.178 NA
HETATM   10  C   UNL     1      12.197  11.823  24.946  0.00  0.00     0.071 A 
ENDROOT
BRANCH   1  11
HETATM   11  C   UNL     1       7.464  13.792  25.651  0.00  0.00     0.260 C 
HETATM   12  N   UNL     1       6.812  14.453  24.568  0.00  0.00    -0.318 N 
HETATM   13  C   UNL     1       7.584  15.081  23.482  0.00  0.00     0.159 C 
HETATM   14  O   UNL     1       6.895  13.155  26.529  0.00  0.00    -0.267 OA
BRANCH  12  15
HETATM   15  C   UNL     1       5.364  14.439  24.371  0.00  0.00     0.037 C 
HETATM   16  C   UNL     1       4.769  13.520  23.483  0.00  0.00     0.032 C 
HETATM   17  C   UNL     1       3.378  13.317  23.414  0.00  0.00     0.031 C 
HETATM   18  C   UNL     1       2.490  14.053  24.189  0.00  0.00     0.030 C 
HETATM   19  C   UNL     1       3.073  15.071  24.956  0.00  0.00     0.031 C 
HETATM   20  C   UNL     1       4.471  15.262  25.049  0.00  0.00     0.032 C 
BRANCH  18  21
HETATM   21  N   UNL     1       1.133  13.825  24.179  0.00  0.00    -0.377 N 
HETATM   22  C   UNL     1       0.270  13.854  25.372  0.00  0.00     0.149 C 
HETATM   23  C   UNL     1      -0.656  12.622  25.337  0.00  0.00     0.187 C 
HETATM   24  O   UNL     1      -1.410  12.542  24.113  0.00  0.00    -0.388 OA
HETATM   25  C   UNL     1      -0.527  12.510  22.976  0.00  0.00     0.187 C 
HETATM   26  C   UNL     1       0.354  13.765  22.931  0.00  0.00     0.149 C 
ENDBRANCH  18  21
ENDBRANCH  12  15
ENDBRANCH   1  11
BRANCH   3  27
HETATM   27  O   UNL     1       8.921  15.466  27.533  0.00  0.00    -0.360 OA
HETATM   28  H   UNL     1       8.256  15.916  26.965  0.00  0.00     0.217 HD
ENDBRANCH   3  27
BRANCH  10  29
HETATM   29  C   UNL     1      12.177  10.625  24.026  0.00  0.00     0.100 C 
BRANCH  29  30
HETATM   30  C   UNL     1      12.291  11.026  22.555  0.00  0.00    -0.052 A 
HETATM   31  C   UNL     1      13.520  11.217  21.907  0.00  0.00     0.007 A 
HETATM   32  C   UNL     1      13.580  11.589  20.561  0.00  0.00     0.001 A 
HETATM   33  C   UNL     1      12.415  11.866  19.853  0.00  0.00     0.007 A 
HETATM   34  C   UNL     1      11.175  11.811  20.494  0.00  0.00    -0.061 A 
HETATM   35  C   UNL     1      11.120  11.354  21.828  0.00  0.00     0.014 A 
HETATM   36  C   UNL     1       9.950  12.248  19.739  0.00  0.00     0.048 C 
ENDBRANCH  29  30
ENDBRANCH  10  29
TORSDOF 6
ENDMDL
MODEL 6
REMARK VINA RESULT:    -8.825      1.980      3.008
REMARK INTER + INTRA:         -12.990
REMARK INTER:                 -11.845
REMARK INTRA:                  -1.145
REMARK UNBOUND:                -1.327
REMARK  6 active torsions:
REMARK  status: ('A' for Active; 'I' for Inactive)
REMARK    1  A    between atoms: N_6  and  C_7 
REMARK    2  A    between atoms: C_12  and  N_13 
REMARK       I    between atoms: N_13  and  C_15 
REMARK    3  A    between atoms: C_15  and  C_17 
REMARK    4  A    between atoms: C_19  and  O_20 
REMARK    5  A    between atoms: C_27  and  C_28 
REMARK    6  A    between atoms: C_28  and  C_29 
ROOT
HETATM    1  C   UNL     1       9.907  14.789  25.143  0.00  0.00     0.066 C 
HETATM    2  C   UNL     1      10.478  15.132  23.898  0.00  0.00     0.035 C 
HETATM    3  C   UNL     1      10.771  14.326  26.155  0.00  0.00     0.083 C 
HETATM    4  C   UNL     1      12.139  14.114  25.935  0.00  0.00     0.069 C 
HETATM    5  C   UNL     1      12.605  14.299  24.630  0.00  0.00     0.065 A 
HETATM    6  C   UNL     1      11.803  14.761  23.590  0.00  0.00     0.020 A 
HETATM    7  N   UNL     1      13.838  14.116  24.071  0.00  0.00    -0.277 N 
HETATM    8  H   UNL     1      14.693  13.844  24.542  0.00  0.00     0.189 HD
HETATM    9  N   UNL     1      13.871  14.293  22.741  0.00  0.00    -0.178 NA
HETATM   10  C   UNL     1      12.618  14.667  22.417  0.00  0.00     0.071 A 
ENDROOT
BRANCH   1  11
HETATM   11  C   UNL     1       8.412  14.864  25.425  0.00  0.00     0.260 C 
HETATM   12  N   UNL     1       7.450  14.470  24.448  0.00  0.00    -0.318 N 
HETATM   13  C   UNL     1       7.866  13.912  23.149  0.00  0.00     0.159 C 
HETATM   14  O   UNL     1       8.146  15.231  26.564  0.00  0.00    -0.267 OA
BRANCH  12  15
HETATM   15  C   UNL     1       6.011  14.451  24.697  0.00  0.00     0.037 C 
HETATM   16  C   UNL     1       5.183  15.480  24.202  0.00  0.00     0.032 C 
HETATM   17  C   UNL     1       3.778  15.406  24.225  0.00  0.00     0.031 C 
HETATM   18  C   UNL     1       3.109  14.326  24.788  0.00  0.00     0.030 C 
HETATM   19  C   UNL     1       3.931  13.380  25.416  0.00  0.00     0.031 C 
HETATM   20  C   UNL     1       5.342  13.436  25.373  0.00  0.00     0.032 C 
BRANCH  18  21
HETATM   21  N   UNL     1       1.738  14.210  24.764  0.00  0.00    -0.377 N 
HETATM   22  C   UNL     1       0.880  14.166  25.961  0.00  0.00     0.149 C 
HETATM   23  C   UNL     1      -0.142  13.025  25.788  0.00  0.00     0.187 C 
HETATM   24  O   UNL     1      -0.900  13.152  24.571  0.00  0.00    -0.388 OA
HETATM   25  C   UNL     1      -0.023  13.185  23.430  0.00  0.00     0.187 C 
HETATM   26  C   UNL     1       0.956  14.362  23.525  0.00  0.00     0.149 C 
ENDBRANCH  18  21
ENDBRANCH  12  15
ENDBRANCH   1  11
BRANCH   3  27
HETATM   27  O   UNL     1      10.351  14.047  27.435  0.00  0.00    -0.360 OA
HETATM   28  H   UNL     1       9.373  14.148  27.459  0.00  0.00     0.217 HD
ENDBRANCH   3  27
BRANCH  10  29
HETATM   29  C   UNL     1      12.282  14.903  20.964  0.00  0.00     0.100 C 
BRANCH  29  30
HETATM   30  C   UNL     1      11.033  14.136  20.529  0.00  0.00    -0.052 A 
HETATM   31  C   UNL     1       9.855  14.768  20.104  0.00  0.00     0.007 A 
HETATM   32  C   UNL     1       8.733  14.030  19.719  0.00  0.00     0.001 A 
HETATM   33  C   UNL     1       8.728  12.643  19.835  0.00  0.00     0.007 A 
HETATM   34  C   UNL     1       9.834  11.981  20.374  0.00  0.00    -0.061 A 
HETATM   35  C   UNL     1      10.991  12.728  20.680  0.00  0.00     0.014 A 
HETATM   36  C   UNL     1       9.744  10.499  20.612  0.00  0.00     0.048 C 
ENDBRANCH  29  30
ENDBRANCH  10  29
TORSDOF 6
ENDMDL
MODEL 7
REMARK VINA RESULT:    -8.813      2.460      4.569
REMARK INTER + INTRA:         -12.974
REMARK INTER:                 -12.036
REMARK INTRA:                  -0.938
REMARK UNBOUND:                -1.327
REMARK  6 active torsions:
REMARK  status: ('A' for Active; 'I' for Inactive)
REMARK    1  A    between atoms: N_6  and  C_7 
REMARK    2  A    between atoms: C_12  and  N_13 
REMARK       I    between atoms: N_13  and  C_15 
REMARK    3  A    between atoms: C_15  and  C_17 
REMARK    4  A    between atoms: C_19  and  O_20 
REMARK    5  A    between atoms: C_27  and  C_28 
REMARK    6  A    between atoms: C_28  and  C_29 
ROOT
HETATM    1  C   UNL     1       9.195  12.062  21.972  0.00  0.00     0.066 C 
HETATM    2  C   UNL     1      10.272  12.742  22.581  0.00  0.00     0.035 C 
HETATM    3  C   UNL     1       9.439  11.411  20.746  0.00  0.00     0.083 C 
HETATM    4  C   UNL     1      10.673  11.495  20.085  0.00  0.00     0.069 C 
HETATM    5  C   UNL     1      11.637  12.334  20.652  0.00  0.00     0.065 A 
HETATM    6  C   UNL     1      11.457  12.998  21.863  0.00  0.00     0.020 A 
HETATM    7  N   UNL     1      12.890  12.687  20.238  0.00  0.00    -0.277 N 
HETATM    8  H   UNL     1      13.389  12.348  19.424  0.00  0.00     0.189 HD
HETATM    9  N   UNL     1      13.480  13.619  21.004  0.00  0.00    -0.178 NA
HETATM   10  C   UNL     1      12.603  13.845  22.000  0.00  0.00     0.071 A 
ENDROOT
BRANCH   1  11
HETATM   11  C   UNL     1       7.788  12.031  22.555  0.00  0.00     0.260 C 
HETATM   12  N   UNL     1       6.886  13.122  22.379  0.00  0.00    -0.318 N 
HETATM   13  C   UNL     1       7.256  14.295  21.568  0.00  0.00     0.159 C 
HETATM   14  O   UNL     1       7.514  10.979  23.121  0.00  0.00    -0.267 OA
BRANCH  12  15
HETATM   15  C   UNL     1       5.504  13.109  22.853  0.00  0.00     0.037 C 
HETATM   16  C   UNL     1       4.937  14.257  23.446  0.00  0.00     0.032 C 
HETATM   17  C   UNL     1       3.563  14.372  23.723  0.00  0.00     0.031 C 
HETATM   18  C   UNL     1       2.674  13.333  23.475  0.00  0.00     0.030 C 
HETATM   19  C   UNL     1       3.263  12.141  23.031  0.00  0.00     0.031 C 
HETATM   20  C   UNL     1       4.639  12.028  22.725  0.00  0.00     0.032 C 
BRANCH  18  21
HETATM   21  N   UNL     1       1.319  13.451  23.683  0.00  0.00    -0.377 N 
HETATM   22  C   UNL     1       0.703  13.942  24.928  0.00  0.00     0.149 C 
HETATM   23  C   UNL     1      -0.456  12.999  25.305  0.00  0.00     0.187 C 
HETATM   24  O   UNL     1      -1.411  12.855  24.238  0.00  0.00    -0.388 OA
HETATM   25  C   UNL     1      -0.767  12.368  23.045  0.00  0.00     0.187 C 
HETATM   26  C   UNL     1       0.340  13.327  22.590  0.00  0.00     0.149 C 
ENDBRANCH  18  21
ENDBRANCH  12  15
ENDBRANCH   1  11
BRANCH   3  27
HETATM   27  O   UNL     1       8.501  10.641  20.100  0.00  0.00    -0.360 OA
HETATM   28  H   UNL     1       8.956  10.156  19.376  0.00  0.00     0.217 HD
ENDBRANCH   3  27
BRANCH  10  29
HETATM   29  C   UNL     1      12.931  14.895  23.035  0.00  0.00     0.100 C 
BRANCH  29  30
HETATM   30  C   UNL     1      11.938  14.889  24.197  0.00  0.00    -0.052 A 
HETATM   31  C   UNL     1      10.738  15.613  24.183  0.00  0.00     0.007 A 
HETATM   32  C   UNL     1       9.859  15.585  25.270  0.00  0.00     0.001 A 
HETATM   33  C   UNL     1      10.200  14.903  26.435  0.00  0.00     0.007 A 
HETATM   34  C   UNL     1      11.442  14.273  26.539  0.00  0.00    -0.061 A 
HETATM   35  C   UNL     1      12.284  14.237  25.408  0.00  0.00     0.014 A 
HETATM   36  C   UNL     1      11.836  13.663  27.857  0.00  0.00     0.048 C 
ENDBRANCH  29  30
ENDBRANCH  10  29
TORSDOF 6
ENDMDL
MODEL 8
REMARK VINA RESULT:    -8.782      2.684      5.057
REMARK INTER + INTRA:         -12.934
REMARK INTER:                 -11.851
REMARK INTRA:                  -1.082
REMARK UNBOUND:                -1.327
REMARK  6 active torsions:
REMARK  status: ('A' for Active; 'I' for Inactive)
REMARK    1  A    between atoms: N_6  and  C_7 
REMARK    2  A    between atoms: C_12  and  N_13 
REMARK       I    between atoms: N_13  and  C_15 
REMARK    3  A    between atoms: C_15  and  C_17 
REMARK    4  A    between atoms: C_19  and  O_20 
REMARK    5  A    between atoms: C_27  and  C_28 
REMARK    6  A    between atoms: C_28  and  C_29 
ROOT
HETATM    1  C   UNL     1       9.351  13.594  21.626  0.00  0.00     0.066 C 
HETATM    2  C   UNL     1      10.267  12.864  22.412  0.00  0.00     0.035 C 
HETATM    3  C   UNL     1       9.872  14.491  20.673  0.00  0.00     0.083 C 
HETATM    4  C   UNL     1      11.246  14.740  20.551  0.00  0.00     0.069 C 
HETATM    5  C   UNL     1      12.085  14.122  21.483  0.00  0.00     0.065 A 
HETATM    6  C   UNL     1      11.630  13.221  22.442  0.00  0.00     0.020 A 
HETATM    7  N   UNL     1      13.434  14.202  21.684  0.00  0.00    -0.277 N 
HETATM    8  H   UNL     1      14.110  14.717  21.132  0.00  0.00     0.189 HD
HETATM    9  N   UNL     1      13.869  13.537  22.767  0.00  0.00    -0.178 NA
HETATM   10  C   UNL     1      12.768  12.945  23.267  0.00  0.00     0.071 A 
ENDROOT
BRANCH   1  11
HETATM   11  C   UNL     1       7.839  13.483  21.784  0.00  0.00     0.260 C 
HETATM   12  N   UNL     1       7.152  14.139  22.848  0.00  0.00    -0.318 N 
HETATM   13  C   UNL     1       7.870  15.006  23.798  0.00  0.00     0.159 C 
HETATM   14  O   UNL     1       7.299  12.837  20.893  0.00  0.00    -0.267 OA
BRANCH  12  15
HETATM   15  C   UNL     1       5.699  14.125  22.998  0.00  0.00     0.037 C 
HETATM   16  C   UNL     1       4.971  12.929  22.824  0.00  0.00     0.032 C 
HETATM   17  C   UNL     1       3.611  12.809  23.162  0.00  0.00     0.031 C 
HETATM   18  C   UNL     1       2.877  13.885  23.648  0.00  0.00     0.030 C 
HETATM   19  C   UNL     1       3.562  15.107  23.674  0.00  0.00     0.031 C 
HETATM   20  C   UNL     1       4.935  15.229  23.360  0.00  0.00     0.032 C 
BRANCH  18  21
HETATM   21  N   UNL     1       1.563  13.768  24.041  0.00  0.00    -0.377 N 
HETATM   22  C   UNL     1       1.102  13.811  25.439  0.00  0.00     0.149 C 
HETATM   23  C   UNL     1       0.099  12.661  25.658  0.00  0.00     0.187 C 
HETATM   24  O   UNL     1      -0.990  12.700  24.717  0.00  0.00    -0.388 OA
HETATM   25  C   UNL     1      -0.492  12.649  23.367  0.00  0.00     0.187 C 
HETATM   26  C   UNL     1       0.446  13.829  23.084  0.00  0.00     0.149 C 
ENDBRANCH  18  21
ENDBRANCH  12  15
ENDBRANCH   1  11
BRANCH   3  27
HETATM   27  O   UNL     1       9.088  15.191  19.787  0.00  0.00    -0.360 OA
HETATM   28  H   UNL     1       9.138  14.736  18.916  0.00  0.00     0.217 HD
ENDBRANCH   3  27
BRANCH  10  29
HETATM   29  C   UNL     1      12.887  12.142  24.540  0.00  0.00     0.100 C 
BRANCH  29  30
HETATM   30  C   UNL     1      12.569  12.977  25.780  0.00  0.00    -0.052 A 
HETATM   31  C   UNL     1      13.351  12.948  26.944  0.00  0.00     0.007 A 
HETATM   32  C   UNL     1      13.021  13.724  28.059  0.00  0.00     0.001 A 
HETATM   33  C   UNL     1      11.853  14.480  28.072  0.00  0.00     0.007 A 
HETATM   34  C   UNL     1      10.980  14.439  26.983  0.00  0.00    -0.061 A 
HETATM   35  C   UNL     1      11.363  13.720  25.831  0.00  0.00     0.014 A 
HETATM   36  C   UNL     1       9.663  15.158  27.083  0.00  0.00     0.048 C 
ENDBRANCH  29  30
ENDBRANCH  10  29
TORSDOF 6
ENDMDL
MODEL 9
REMARK VINA RESULT:    -8.473      2.443      2.866
REMARK INTER + INTRA:         -12.525
REMARK INTER:                 -11.198
REMARK INTRA:                  -1.327
REMARK UNBOUND:                -1.327
REMARK  6 active torsions:
REMARK  status: ('A' for Active; 'I' for Inactive)
REMARK    1  A    between atoms: N_6  and  C_7 
REMARK    2  A    between atoms: C_12  and  N_13 
REMARK       I    between atoms: N_13  and  C_15 
REMARK    3  A    between atoms: C_15  and  C_17 
REMARK    4  A    between atoms: C_19  and  O_20 
REMARK    5  A    between atoms: C_27  and  C_28 
REMARK    6  A    between atoms: C_28  and  C_29 
ROOT
HETATM    1  C   UNL     1       7.871  14.105  25.395  0.00  0.00     0.066 C 
HETATM    2  C   UNL     1       8.656  13.716  24.288  0.00  0.00     0.035 C 
HETATM    3  C   UNL     1       8.527  14.706  26.487  0.00  0.00     0.083 C 
HETATM    4  C   UNL     1       9.921  14.843  26.541  0.00  0.00     0.069 C 
HETATM    5  C   UNL     1      10.653  14.273  25.494  0.00  0.00     0.065 A 
HETATM    6  C   UNL     1      10.061  13.672  24.387  0.00  0.00     0.020 A 
HETATM    7  N   UNL     1      11.998  14.170  25.278  0.00  0.00    -0.277 N 
HETATM    8  H   UNL     1      12.744  14.552  25.846  0.00  0.00     0.189 HD
HETATM    9  N   UNL     1      12.326  13.443  24.198  0.00  0.00    -0.178 NA
HETATM   10  C   UNL     1      11.146  13.103  23.645  0.00  0.00     0.071 A 
ENDROOT
BRANCH   1  11
HETATM   11  C   UNL     1       6.367  13.872  25.475  0.00  0.00     0.260 C 
HETATM   12  N   UNL     1       5.462  14.557  24.611  0.00  0.00    -0.318 N 
HETATM   13  C   UNL     1       5.950  15.467  23.561  0.00  0.00     0.159 C 
HETATM   14  O   UNL     1       6.045  13.021  26.295  0.00  0.00    -0.267 OA
BRANCH  12  15
HETATM   15  C   UNL     1       4.021  14.313  24.598  0.00  0.00     0.037 C 
HETATM   16  C   UNL     1       3.417  13.636  23.517  0.00  0.00     0.032 C 
HETATM   17  C   UNL     1       2.084  13.188  23.549  0.00  0.00     0.031 C 
HETATM   18  C   UNL     1       1.253  13.429  24.636  0.00  0.00     0.030 C 
HETATM   19  C   UNL     1       1.808  14.234  25.640  0.00  0.00     0.031 C 
HETATM   20  C   UNL     1       3.154  14.665  25.627  0.00  0.00     0.032 C 
BRANCH  18  21
HETATM   21  N   UNL     1      -0.033  12.944  24.708  0.00  0.00    -0.377 N 
HETATM   22  C   UNL     1      -0.779  12.732  25.960  0.00  0.00     0.149 C 
HETATM   23  C   UNL     1      -1.457  11.349  25.898  0.00  0.00     0.187 C 
HETATM   24  O   UNL     1      -2.286  11.201  24.730  0.00  0.00    -0.388 OA
HETATM   25  C   UNL     1      -1.514  11.410  23.532  0.00  0.00     0.187 C 
HETATM   26  C   UNL     1      -0.892  12.811  23.519  0.00  0.00     0.149 C 
ENDBRANCH  18  21
ENDBRANCH  12  15
ENDBRANCH   1  11
BRANCH   3  27
HETATM   27  O   UNL     1       7.864  15.209  27.582  0.00  0.00    -0.360 OA
HETATM   28  H   UNL     1       7.243  14.516  27.901  0.00  0.00     0.217 HD
ENDBRANCH   3  27
BRANCH  10  29
HETATM   29  C   UNL     1      11.143  12.223  22.418  0.00  0.00     0.100 C 
BRANCH  29  30
HETATM   30  C   UNL     1       9.920  11.308  22.368  0.00  0.00    -0.052 A 
HETATM   31  C   UNL     1       8.892  11.454  21.426  0.00  0.00     0.007 A 
HETATM   32  C   UNL     1       7.787  10.599  21.417  0.00  0.00     0.001 A 
HETATM   33  C   UNL     1       7.637   9.631  22.406  0.00  0.00     0.007 A 
HETATM   34  C   UNL     1       8.573   9.532  23.438  0.00  0.00    -0.061 A 
HETATM   35  C   UNL     1       9.726  10.344  23.389  0.00  0.00     0.014 A 
HETATM   36  C   UNL     1       8.312   8.570  24.563  0.00  0.00     0.048 C 
ENDBRANCH  29  30
ENDBRANCH  10  29
TORSDOF 6
ENDMDL
