REMARK  6 active torsions:
REMARK  status: ('A' for Active; 'I' for Inactive)
REMARK    1  A    between atoms: N_6  and  C_7 
REMARK    2  A    between atoms: C_12  and  N_13 
REMARK       I    between atoms: N_13  and  C_15 
REMARK    3  A    between atoms: C_15  and  C_17 
REMARK    4  A    between atoms: C_19  and  O_20 
REMARK    5  A    between atoms: C_27  and  C_28 
REMARK    6  A    between atoms: C_28  and  C_29 
ROOT
HETATM    1  C   UNL     1       8.535  -1.264   3.875  0.00  0.00     0.066 C 
HETATM    2  C   UNL     1       9.080  -0.041   4.322  0.00  0.00     0.035 C 
HETATM    3  C   UNL     1       9.352  -2.410   3.942  0.00  0.00     0.083 C 
HETATM    4  C   UNL     1      10.693  -2.352   4.346  0.00  0.00     0.069 C 
HETATM    5  C   UNL     1      11.222  -1.083   4.600  0.00  0.00     0.065 A 
HETATM    6  C   UNL     1      10.464   0.084   4.557  0.00  0.00     0.020 A 
HETATM    7  N   UNL     1      12.481  -0.675   4.939  0.00  0.00    -0.277 N 
HETATM    8  H   UNL     1      13.289  -1.258   5.123  0.00  0.00     0.189 HD
HETATM    9  N   UNL     1      12.632   0.658   4.990  0.00  0.00    -0.178 NA
HETATM   10  C   UNL     1      11.405   1.149   4.732  0.00  0.00     0.071 A 
ENDROOT
BRANCH   1  11
HETATM   11  C   UNL     1       7.131  -1.392   3.297  0.00  0.00     0.260 C 
HETATM   12  N   UNL     1       6.526  -0.324   2.570  0.00  0.00    -0.318 N 
HETATM   13  C   UNL     1       7.261   0.922   2.292  0.00  0.00     0.159 C 
HETATM   14  O   UNL     1       6.627  -2.495   3.473  0.00  0.00    -0.267 OA
BRANCH  12  15
HETATM   15  C   UNL     1       5.215  -0.425   1.933  0.00  0.00     0.037 C 
HETATM   16  C   UNL     1       4.631   0.698   1.310  0.00  0.00     0.032 C 
HETATM   17  C   UNL     1       3.482   0.610   0.503  0.00  0.00     0.031 C 
HETATM   18  C   UNL     1       2.813  -0.592   0.306  0.00  0.00     0.030 C 
HETATM   19  C   UNL     1       3.305  -1.674   1.049  0.00  0.00     0.031 C 
HETATM   20  C   UNL     1       4.474  -1.598   1.840  0.00  0.00     0.032 C 
BRANCH  18  21
HETATM   21  N   UNL     1       1.725  -0.706  -0.529  0.00  0.00    -0.377 N 
HETATM   22  C   UNL     1       0.918   0.428  -1.011  0.00  0.00     0.149 C 
HETATM   23  C   UNL     1      -0.573   0.066  -0.861  0.00  0.00     0.187 C 
HETATM   24  O   UNL     1      -0.904  -1.168  -1.525  0.00  0.00    -0.388 OA
HETATM   25  C   UNL     1      -0.096  -2.247  -1.018  0.00  0.00     0.187 C 
HETATM   26  C   UNL     1       1.396  -1.960  -1.227  0.00  0.00     0.149 C 
ENDBRANCH  18  21
ENDBRANCH  12  15
ENDBRANCH   1  11
BRANCH   3  27
HETATM   27  O   UNL     1       8.909  -3.672   3.623  0.00  0.00    -0.360 OA
HETATM   28  H   UNL     1       7.934  -3.626   3.500  0.00  0.00     0.217 HD
ENDBRANCH   3  27
BRANCH  10  29
HETATM   29  C   UNL     1      11.220   2.646   4.659  0.00  0.00     0.100 C 
BRANCH  29  30
HETATM   30  C   UNL     1      10.968   3.127   3.230  0.00  0.00    -0.052 A 
HETATM   31  C   UNL     1      11.384   2.413   2.097  0.00  0.00     0.007 A 
HETATM   32  C   UNL     1      11.138   2.891   0.807  0.00  0.00     0.001 A 
HETATM   33  C   UNL     1      10.550   4.138   0.617  0.00  0.00     0.007 A 
HETATM   34  C   UNL     1      10.235   4.939   1.717  0.00  0.00    -0.061 A 
HETATM   35  C   UNL     1      10.410   4.412   3.014  0.00  0.00     0.014 A 
HETATM   36  C   UNL     1       9.728   6.334   1.475  0.00  0.00     0.048 C 
ENDBRANCH  29  30
ENDBRANCH  10  29
TORSDOF 6
