REMARK  5 active torsions:
REMARK  status: ('A' for Active; 'I' for Inactive)
REMARK    1  A    between atoms: N_6  and  C_7 
REMARK    2  A    between atoms: C_12  and  N_13 
REMARK       I    between atoms: N_13  and  C_15 
REMARK    3  A    between atoms: C_15  and  C_17 
REMARK    4  A    between atoms: C_18  and  O_20 
REMARK    5  A    between atoms: C_24  and  C_28 
REMARK       I    between atoms: C_28  and  N_30 
ROOT
HETATM    1  C   UNL     1       8.442  -1.170   4.013  0.00  0.00     0.066 C 
HETATM    2  C   UNL     1       9.233  -2.334   3.968  0.00  0.00     0.083 C 
HETATM    3  C   UNL     1      10.588  -2.340   4.321  0.00  0.00     0.069 C 
HETATM    4  C   UNL     1       9.050   0.016   4.490  0.00  0.00     0.036 C 
HETATM    5  C   UNL     1      10.451   0.073   4.702  0.00  0.00     0.029 C 
HETATM    6  C   UNL     1      11.167  -1.115   4.653  0.00  0.00     0.065 C 
HETATM    7  C   UNL     1      11.444   1.097   4.907  0.00  0.00     0.157 C 
HETATM    8  N   UNL     1      12.648   0.535   5.150  0.00  0.00    -0.168 NA
HETATM    9  N   UNL     1      12.444  -0.779   4.996  0.00  0.00    -0.277 N 
HETATM   10  H   UNL     1      13.236  -1.403   5.115  0.00  0.00     0.189 HD
ENDROOT
BRANCH   1  11
HETATM   11  C   UNL     1       6.999  -1.240   3.530  0.00  0.00     0.260 C 
HETATM   12  N   UNL     1       6.384  -0.162   2.830  0.00  0.00    -0.318 N 
HETATM   13  C   UNL     1       7.149   1.053   2.533  0.00  0.00     0.159 C 
HETATM   14  O   UNL     1       6.458  -2.339   3.741  0.00  0.00    -0.267 OA
BRANCH  12  15
HETATM   15  C   UNL     1       5.031  -0.216   2.275  0.00  0.00     0.037 A 
HETATM   16  C   UNL     1       4.440   0.932   1.719  0.00  0.00     0.032 A 
HETATM   17  C   UNL     1       3.219   0.901   1.021  0.00  0.00     0.031 A 
HETATM   18  C   UNL     1       2.471  -0.265   0.870  0.00  0.00     0.030 A 
HETATM   19  C   UNL     1       2.997  -1.390   1.517  0.00  0.00     0.031 A 
HETATM   20  C   UNL     1       4.243  -1.370   2.200  0.00  0.00     0.032 A 
BRANCH  18  21
HETATM   21  N   UNL     1       1.298  -0.268   0.146  0.00  0.00    -0.377 N 
HETATM   22  C   UNL     1       0.207  -1.236   0.343  0.00  0.00     0.149 C 
HETATM   23  C   UNL     1      -0.016  -2.053  -0.938  0.00  0.00     0.187 C 
HETATM   24  O   UNL     1      -0.261  -1.203  -2.073  0.00  0.00    -0.388 OA
HETATM   25  C   UNL     1       0.856  -0.323  -2.283  0.00  0.00     0.187 C 
HETATM   26  C   UNL     1       1.118   0.570  -1.057  0.00  0.00     0.149 C 
ENDBRANCH  18  21
ENDBRANCH  12  15
ENDBRANCH   1  11
BRANCH   2  27
HETATM   27  O   UNL     1       8.742  -3.557   3.573  0.00  0.00    -0.360 OA
HETATM   28  H   UNL     1       7.759  -3.487   3.539  0.00  0.00     0.217 HD
ENDBRANCH   2  27
BRANCH   7  29
HETATM   29  C   UNL     1      11.242   2.570   4.858  0.00  0.00     0.275 C 
HETATM   30  O   UNL     1      10.134   3.043   5.123  0.00  0.00    -0.266 OA
HETATM   31  N   UNL     1      12.323   3.414   4.484  0.00  0.00    -0.347 N 
HETATM   32  C   UNL     1      12.082   4.858   4.519  0.00  0.00     0.126 C 
HETATM   33  C   UNL     1      13.338   2.989   3.511  0.00  0.00     0.126 C 
HETATM   34  C   UNL     1      13.374   5.670   4.649  0.00  0.00     0.020 C 
HETATM   35  C   UNL     1      14.404   5.265   3.599  0.00  0.00     0.003 C 
HETATM   36  C   UNL     1      14.647   3.763   3.666  0.00  0.00     0.020 C 
ENDBRANCH   7  29
TORSDOF 5
