MODEL 1
REMARK VINA RESULT:    -7.367      0.000      0.000
REMARK INTER + INTRA:         -12.498
REMARK INTER:                 -11.325
REMARK INTRA:                  -1.173
REMARK UNBOUND:                -1.470
REMARK  9 active torsions:
REMARK  status: ('A' for Active; 'I' for Inactive)
REMARK    1  A    between atoms: C_5  and  N_6 
REMARK    2  A    between atoms: C_10  and  C_17 
REMARK    3  A    between atoms: N_11  and  C_12 
REMARK    4  A    between atoms: C_12  and  C_13 
REMARK    5  A    between atoms: C_13  and  C_14 
REMARK    6  A    between atoms: C_17  and  C_18 
REMARK    7  A    between atoms: C_21  and  O_22 
REMARK    8  A    between atoms: C_24  and  O_25 
REMARK    9  A    between atoms: C_27  and  O_29 
ROOT
HETATM    1  C   UNL     1      -4.354  15.299  20.126  0.00  0.00     0.094 C 
HETATM    2  C   UNL     1      -3.200  16.199  20.009  0.00  0.00    -0.117 C 
HETATM    3  C   UNL     1      -2.253  16.935  19.925  0.00  0.00     0.012 C 
ENDROOT
BRANCH   1   4
HETATM    4  C   UNL     1      -4.631  14.903  21.576  0.00  0.00     0.032 C 
BRANCH   4   5
HETATM    5  C   UNL     1      -3.974  13.585  22.018  0.00  0.00     0.133 C 
BRANCH   5   6
HETATM    6  N   UNL     1      -3.873  13.406  23.454  0.00  0.00    -0.317 N 
HETATM    7  C   UNL     1      -4.458  12.373  24.148  0.00  0.00     0.168 A 
HETATM    8  N   UNL     1      -5.187  11.351  23.673  0.00  0.00    -0.182 NA
HETATM    9  C   UNL     1      -4.089  12.569  25.462  0.00  0.00     0.145 A 
HETATM   10  C   UNL     1      -5.517  10.481  24.655  0.00  0.00     0.312 A 
HETATM   11  F   UNL     1      -6.223   9.406  24.272  0.00  0.00    -0.161 F 
HETATM   12  N   UNL     1      -5.192  10.543  25.964  0.00  0.00    -0.189 NA
HETATM   13  C   UNL     1      -4.482  11.604  26.397  0.00  0.00     0.138 A 
HETATM   14  N   UNL     1      -3.291  13.666  25.593  0.00  0.00    -0.228 NA
HETATM   15  C   UNL     1      -3.076  14.088  24.357  0.00  0.00     0.113 C 
BRANCH  13  16
HETATM   16  N   UNL     1      -4.077  11.671  27.720  0.00  0.00    -0.285 NA
HETATM   17  H   UNL     1      -4.702  11.182  28.346  0.00  0.00     0.125 HD
HETATM   18  H   UNL     1      -3.080  11.492  27.831  0.00  0.00     0.125 HD
ENDBRANCH  13  16
BRANCH  15  19
HETATM   19  C   UNL     1      -1.958  15.016  24.040  0.00  0.00     0.119 C 
BRANCH  19  20
HETATM   20  C   UNL     1      -0.855  14.397  23.179  0.00  0.00    -0.024 C 
HETATM   21  C   UNL     1      -0.078  15.215  22.346  0.00  0.00     0.077 C 
HETATM   22 CL   UNL     1       0.008  16.913  22.725  0.00  0.00    -0.081 Cl
HETATM   23  C   UNL     1       0.721  14.652  21.335  0.00  0.00     0.126 C 
HETATM   24  C   UNL     1       0.970  13.255  21.330  0.00  0.00     0.136 C 
HETATM   25  C   UNL     1       0.349  12.438  22.294  0.00  0.00     0.104 C 
HETATM   26  C   UNL     1      -0.595  13.012  23.156  0.00  0.00     0.049 C 
BRANCH  23  27
HETATM   27  O   UNL     1       1.347  15.408  20.363  0.00  0.00    -0.351 OA
HETATM   28  C   UNL     1       2.628  15.920  20.746  0.00  0.00     0.210 C 
ENDBRANCH  23  27
BRANCH  24  29
HETATM   29  O   UNL     1       1.785  12.808  20.312  0.00  0.00    -0.351 OA
HETATM   30  C   UNL     1       1.211  11.967  19.317  0.00  0.00     0.210 C 
ENDBRANCH  24  29
BRANCH  25  31
HETATM   31  O   UNL     1       0.644  11.099  22.325  0.00  0.00    -0.353 OA
HETATM   32  C   UNL     1       0.130  10.309  23.396  0.00  0.00     0.210 C 
ENDBRANCH  25  31
ENDBRANCH  19  20
ENDBRANCH  15  19
ENDBRANCH   5   6
ENDBRANCH   4   5
ENDBRANCH   1   4
TORSDOF 9
ENDMDL
MODEL 2
REMARK VINA RESULT:    -7.288      1.728      2.876
REMARK INTER + INTRA:         -12.379
REMARK INTER:                 -11.898
REMARK INTRA:                  -0.482
REMARK UNBOUND:                -1.470
REMARK  9 active torsions:
REMARK  status: ('A' for Active; 'I' for Inactive)
REMARK    1  A    between atoms: C_5  and  N_6 
REMARK    2  A    between atoms: C_10  and  C_17 
REMARK    3  A    between atoms: N_11  and  C_12 
REMARK    4  A    between atoms: C_12  and  C_13 
REMARK    5  A    between atoms: C_13  and  C_14 
REMARK    6  A    between atoms: C_17  and  C_18 
REMARK    7  A    between atoms: C_21  and  O_22 
REMARK    8  A    between atoms: C_24  and  O_25 
REMARK    9  A    between atoms: C_27  and  O_29 
ROOT
HETATM    1  C   UNL     1      -4.213  15.253  19.959  0.00  0.00     0.094 C 
HETATM    2  C   UNL     1      -5.025  14.267  19.235  0.00  0.00    -0.117 C 
HETATM    3  C   UNL     1      -5.694  13.455  18.653  0.00  0.00     0.012 C 
ENDROOT
BRANCH   1   4
HETATM    4  C   UNL     1      -4.290  15.063  21.474  0.00  0.00     0.032 C 
BRANCH   4   5
HETATM    5  C   UNL     1      -3.216  14.132  22.058  0.00  0.00     0.133 C 
BRANCH   5   6
HETATM    6  N   UNL     1      -3.321  13.900  23.486  0.00  0.00    -0.317 N 
HETATM    7  C   UNL     1      -3.907  12.792  24.050  0.00  0.00     0.168 A 
HETATM    8  N   UNL     1      -4.456  11.731  23.437  0.00  0.00    -0.182 NA
HETATM    9  C   UNL     1      -3.765  12.963  25.411  0.00  0.00     0.145 A 
HETATM   10  C   UNL     1      -4.851  10.794  24.329  0.00  0.00     0.312 A 
HETATM   11  F   UNL     1      -5.386   9.679  23.809  0.00  0.00    -0.161 F 
HETATM   12  N   UNL     1      -4.739  10.828  25.674  0.00  0.00    -0.189 NA
HETATM   13  C   UNL     1      -4.206  11.928  26.243  0.00  0.00     0.138 A 
HETATM   14  N   UNL     1      -3.102  14.118  25.697  0.00  0.00    -0.228 NA
HETATM   15  C   UNL     1      -2.739  14.610  24.523  0.00  0.00     0.113 C 
BRANCH  13  16
HETATM   16  N   UNL     1      -4.017  11.973  27.615  0.00  0.00    -0.285 NA
HETATM   17  H   UNL     1      -4.541  12.715  28.059  0.00  0.00     0.125 HD
HETATM   18  H   UNL     1      -4.071  11.051  28.046  0.00  0.00     0.125 HD
ENDBRANCH  13  16
BRANCH  15  19
HETATM   19  C   UNL     1      -1.677  15.645  24.413  0.00  0.00     0.119 C 
BRANCH  19  20
HETATM   20  C   UNL     1      -0.746  15.462  23.212  0.00  0.00    -0.024 C 
HETATM   21  C   UNL     1       0.261  14.487  23.253  0.00  0.00     0.077 C 
HETATM   22 CL   UNL     1       0.072  13.169  24.375  0.00  0.00    -0.081 Cl
HETATM   23  C   UNL     1       1.305  14.499  22.311  0.00  0.00     0.126 C 
HETATM   24  C   UNL     1       1.200  15.311  21.152  0.00  0.00     0.136 C 
HETATM   25  C   UNL     1       0.085  16.156  20.999  0.00  0.00     0.104 C 
HETATM   26  C   UNL     1      -0.830  16.262  22.055  0.00  0.00     0.049 C 
BRANCH  23  27
HETATM   27  O   UNL     1       2.423  13.694  22.418  0.00  0.00    -0.351 OA
HETATM   28  C   UNL     1       3.397  14.157  23.360  0.00  0.00     0.210 C 
ENDBRANCH  23  27
BRANCH  24  29
HETATM   29  O   UNL     1       2.266  15.231  20.282  0.00  0.00    -0.351 OA
HETATM   30  C   UNL     1       3.169  16.330  20.227  0.00  0.00     0.210 C 
ENDBRANCH  24  29
BRANCH  25  31
HETATM   31  O   UNL     1      -0.044  16.891  19.848  0.00  0.00    -0.353 OA
HETATM   32  C   UNL     1      -1.344  17.328  19.456  0.00  0.00     0.210 C 
ENDBRANCH  25  31
ENDBRANCH  19  20
ENDBRANCH  15  19
ENDBRANCH   5   6
ENDBRANCH   4   5
ENDBRANCH   1   4
TORSDOF 9
ENDMDL
MODEL 3
REMARK VINA RESULT:    -7.273      1.646      2.717
REMARK INTER + INTRA:         -12.356
REMARK INTER:                 -11.651
REMARK INTRA:                  -0.705
REMARK UNBOUND:                -1.470
REMARK  9 active torsions:
REMARK  status: ('A' for Active; 'I' for Inactive)
REMARK    1  A    between atoms: C_5  and  N_6 
REMARK    2  A    between atoms: C_10  and  C_17 
REMARK    3  A    between atoms: N_11  and  C_12 
REMARK    4  A    between atoms: C_12  and  C_13 
REMARK    5  A    between atoms: C_13  and  C_14 
REMARK    6  A    between atoms: C_17  and  C_18 
REMARK    7  A    between atoms: C_21  and  O_22 
REMARK    8  A    between atoms: C_24  and  O_25 
REMARK    9  A    between atoms: C_27  and  O_29 
ROOT
HETATM    1  C   UNL     1      -3.607  13.477  21.558  0.00  0.00     0.094 C 
HETATM    2  C   UNL     1      -4.238  13.920  20.309  0.00  0.00    -0.117 C 
HETATM    3  C   UNL     1      -4.747  14.278  19.279  0.00  0.00     0.012 C 
ENDROOT
BRANCH   1   4
HETATM    4  C   UNL     1      -2.298  12.728  21.308  0.00  0.00     0.032 C 
BRANCH   4   5
HETATM    5  C   UNL     1      -2.021  11.577  22.290  0.00  0.00     0.133 C 
BRANCH   5   6
HETATM    6  N   UNL     1      -2.430  11.832  23.658  0.00  0.00    -0.317 N 
HETATM    7  C   UNL     1      -3.608  11.385  24.210  0.00  0.00     0.168 A 
HETATM    8  N   UNL     1      -4.568  10.639  23.643  0.00  0.00    -0.182 NA
HETATM    9  C   UNL     1      -3.580  11.822  25.518  0.00  0.00     0.145 A 
HETATM   10  C   UNL     1      -5.538  10.323  24.533  0.00  0.00     0.312 A 
HETATM   11  F   UNL     1      -6.531   9.551  24.067  0.00  0.00    -0.161 F 
HETATM   12  N   UNL     1      -5.610  10.659  25.839  0.00  0.00    -0.189 NA
HETATM   13  C   UNL     1      -4.633  11.434  26.353  0.00  0.00     0.138 A 
HETATM   14  N   UNL     1      -2.428  12.498  25.789  0.00  0.00    -0.228 NA
HETATM   15  C   UNL     1      -1.697  12.392  24.691  0.00  0.00     0.113 C 
BRANCH  13  16
HETATM   16  N   UNL     1      -4.640  11.747  27.703  0.00  0.00    -0.285 NA
HETATM   17  H   UNL     1      -4.901  10.963  28.286  0.00  0.00     0.125 HD
HETATM   18  H   UNL     1      -3.815  12.275  27.984  0.00  0.00     0.125 HD
ENDBRANCH  13  16
BRANCH  15  19
HETATM   19  C   UNL     1      -0.233  12.657  24.707  0.00  0.00     0.119 C 
BRANCH  19  20
HETATM   20  C   UNL     1       0.234  13.652  23.643  0.00  0.00    -0.024 C 
HETATM   21  C   UNL     1      -0.418  14.886  23.507  0.00  0.00     0.077 C 
HETATM   22 CL   UNL     1      -1.325  15.480  24.870  0.00  0.00    -0.081 Cl
HETATM   23  C   UNL     1      -0.216  15.679  22.364  0.00  0.00     0.126 C 
HETATM   24  C   UNL     1       0.853  15.381  21.479  0.00  0.00     0.136 C 
HETATM   25  C   UNL     1       1.651  14.246  21.717  0.00  0.00     0.104 C 
HETATM   26  C   UNL     1       1.290  13.373  22.752  0.00  0.00     0.049 C 
BRANCH  23  27
HETATM   27  O   UNL     1      -0.975  16.798  22.081  0.00  0.00    -0.351 OA
HETATM   28  C   UNL     1      -1.926  16.618  21.026  0.00  0.00     0.210 C 
ENDBRANCH  23  27
BRANCH  24  29
HETATM   29  O   UNL     1       0.978  16.233  20.403  0.00  0.00    -0.351 OA
HETATM   30  C   UNL     1       2.009  17.214  20.444  0.00  0.00     0.210 C 
ENDBRANCH  24  29
BRANCH  25  31
HETATM   31  O   UNL     1       2.723  13.999  20.897  0.00  0.00    -0.353 OA
HETATM   32  C   UNL     1       4.030  14.338  21.356  0.00  0.00     0.210 C 
ENDBRANCH  25  31
ENDBRANCH  19  20
ENDBRANCH  15  19
ENDBRANCH   5   6
ENDBRANCH   4   5
ENDBRANCH   1   4
TORSDOF 9
ENDMDL
MODEL 4
REMARK VINA RESULT:    -7.073      2.083      2.404
REMARK INTER + INTRA:         -12.057
REMARK INTER:                 -10.724
REMARK INTRA:                  -1.333
REMARK UNBOUND:                -1.470
REMARK  9 active torsions:
REMARK  status: ('A' for Active; 'I' for Inactive)
REMARK    1  A    between atoms: C_5  and  N_6 
REMARK    2  A    between atoms: C_10  and  C_17 
REMARK    3  A    between atoms: N_11  and  C_12 
REMARK    4  A    between atoms: C_12  and  C_13 
REMARK    5  A    between atoms: C_13  and  C_14 
REMARK    6  A    between atoms: C_17  and  C_18 
REMARK    7  A    between atoms: C_21  and  O_22 
REMARK    8  A    between atoms: C_24  and  O_25 
REMARK    9  A    between atoms: C_27  and  O_29 
ROOT
HETATM    1  C   UNL     1      -4.683  14.851  20.141  0.00  0.00     0.094 C 
HETATM    2  C   UNL     1      -3.944  16.098  19.905  0.00  0.00    -0.117 C 
HETATM    3  C   UNL     1      -3.330  17.113  19.710  0.00  0.00     0.012 C 
ENDROOT
BRANCH   1   4
HETATM    4  C   UNL     1      -3.773  13.624  20.091  0.00  0.00     0.032 C 
BRANCH   4   5
HETATM    5  C   UNL     1      -2.448  13.777  20.856  0.00  0.00     0.133 C 
BRANCH   5   6
HETATM    6  N   UNL     1      -2.588  13.952  22.289  0.00  0.00    -0.317 N 
HETATM    7  C   UNL     1      -3.039  12.977  23.147  0.00  0.00     0.168 A 
HETATM    8  N   UNL     1      -3.403  11.716  22.865  0.00  0.00    -0.182 NA
HETATM    9  C   UNL     1      -2.988  13.550  24.400  0.00  0.00     0.145 A 
HETATM   10  C   UNL     1      -3.706  11.026  23.990  0.00  0.00     0.312 A 
HETATM   11  F   UNL     1      -4.053   9.742  23.813  0.00  0.00    -0.161 F 
HETATM   12  N   UNL     1      -3.664  11.460  25.267  0.00  0.00    -0.189 NA
HETATM   13  C   UNL     1      -3.319  12.744  25.495  0.00  0.00     0.138 A 
HETATM   14  N   UNL     1      -2.509  14.824  24.342  0.00  0.00    -0.228 NA
HETATM   15  C   UNL     1      -2.163  15.007  23.078  0.00  0.00     0.113 C 
BRANCH  13  16
HETATM   16  N   UNL     1      -3.205  13.207  26.796  0.00  0.00    -0.285 NA
HETATM   17  H   UNL     1      -3.225  14.216  26.856  0.00  0.00     0.125 HD
HETATM   18  H   UNL     1      -3.802  12.696  27.445  0.00  0.00     0.125 HD
ENDBRANCH  13  16
BRANCH  15  19
HETATM   19  C   UNL     1      -1.252  16.113  22.677  0.00  0.00     0.119 C 
BRANCH  19  20
HETATM   20  C   UNL     1       0.213  15.697  22.535  0.00  0.00    -0.024 C 
HETATM   21  C   UNL     1       0.860  15.832  21.297  0.00  0.00     0.077 C 
HETATM   22 CL   UNL     1       0.194  16.962  20.151  0.00  0.00    -0.081 Cl
HETATM   23  C   UNL     1       2.087  15.188  21.059  0.00  0.00     0.126 C 
HETATM   24  C   UNL     1       2.817  14.638  22.144  0.00  0.00     0.136 C 
HETATM   25  C   UNL     1       2.265  14.674  23.439  0.00  0.00     0.104 C 
HETATM   26  C   UNL     1       0.954  15.144  23.598  0.00  0.00     0.049 C 
BRANCH  23  27
HETATM   27  O   UNL     1       2.669  15.120  19.807  0.00  0.00    -0.351 OA
HETATM   28  C   UNL     1       3.423  16.280  19.441  0.00  0.00     0.210 C 
ENDBRANCH  23  27
BRANCH  24  29
HETATM   29  O   UNL     1       4.018  14.052  21.805  0.00  0.00    -0.351 OA
HETATM   30  C   UNL     1       5.217  14.741  22.142  0.00  0.00     0.210 C 
ENDBRANCH  24  29
BRANCH  25  31
HETATM   31  O   UNL     1       3.002  14.200  24.494  0.00  0.00    -0.353 OA
HETATM   32  C   UNL     1       2.784  12.861  24.935  0.00  0.00     0.210 C 
ENDBRANCH  25  31
ENDBRANCH  19  20
ENDBRANCH  15  19
ENDBRANCH   5   6
ENDBRANCH   4   5
ENDBRANCH   1   4
TORSDOF 9
ENDMDL
MODEL 5
REMARK VINA RESULT:    -7.057      2.845      5.509
REMARK INTER + INTRA:         -12.033
REMARK INTER:                 -10.840
REMARK INTRA:                  -1.193
REMARK UNBOUND:                -1.470
REMARK  9 active torsions:
REMARK  status: ('A' for Active; 'I' for Inactive)
REMARK    1  A    between atoms: C_5  and  N_6 
REMARK    2  A    between atoms: C_10  and  C_17 
REMARK    3  A    between atoms: N_11  and  C_12 
REMARK    4  A    between atoms: C_12  and  C_13 
REMARK    5  A    between atoms: C_13  and  C_14 
REMARK    6  A    between atoms: C_17  and  C_18 
REMARK    7  A    between atoms: C_21  and  O_22 
REMARK    8  A    between atoms: C_24  and  O_25 
REMARK    9  A    between atoms: C_27  and  O_29 
ROOT
HETATM    1  C   UNL     1       2.046   9.019  25.205  0.00  0.00     0.094 C 
HETATM    2  C   UNL     1       2.744   8.020  24.386  0.00  0.00    -0.117 C 
HETATM    3  C   UNL     1       3.310   7.205  23.706  0.00  0.00     0.012 C 
ENDROOT
BRANCH   1   4
HETATM    4  C   UNL     1       1.088   9.874  24.377  0.00  0.00     0.032 C 
BRANCH   4   5
HETATM    5  C   UNL     1      -0.226   9.174  23.993  0.00  0.00     0.133 C 
BRANCH   5   6
HETATM    6  N   UNL     1      -1.417   9.989  24.143  0.00  0.00    -0.317 N 
HETATM    7  C   UNL     1      -1.982  10.319  25.352  0.00  0.00     0.168 A 
HETATM    8  N   UNL     1      -1.565   9.999  26.587  0.00  0.00    -0.182 NA
HETATM    9  C   UNL     1      -3.063  11.116  25.038  0.00  0.00     0.145 A 
HETATM   10  C   UNL     1      -2.333  10.584  27.535  0.00  0.00     0.312 A 
HETATM   11  F   UNL     1      -1.975  10.347  28.806  0.00  0.00    -0.161 F 
HETATM   12  N   UNL     1      -3.390  11.405  27.358  0.00  0.00    -0.189 NA
HETATM   13  C   UNL     1      -3.787  11.673  26.098  0.00  0.00     0.138 A 
HETATM   14  N   UNL     1      -3.168  11.299  23.692  0.00  0.00    -0.228 NA
HETATM   15  C   UNL     1      -2.100  10.710  23.178  0.00  0.00     0.113 C 
BRANCH  13  16
HETATM   16  N   UNL     1      -4.828  12.560  25.876  0.00  0.00    -0.285 NA
HETATM   17  H   UNL     1      -5.024  13.143  26.678  0.00  0.00     0.125 HD
HETATM   18  H   UNL     1      -4.755  13.028  24.973  0.00  0.00     0.125 HD
ENDBRANCH  13  16
BRANCH  15  19
HETATM   19  C   UNL     1      -1.641  11.009  21.794  0.00  0.00     0.119 C 
BRANCH  19  20
HETATM   20  C   UNL     1      -1.769  12.481  21.396  0.00  0.00    -0.024 C 
HETATM   21  C   UNL     1      -0.778  13.395  21.782  0.00  0.00     0.077 C 
HETATM   22 CL   UNL     1       0.797  12.768  22.180  0.00  0.00    -0.081 Cl
HETATM   23  C   UNL     1      -1.012  14.779  21.698  0.00  0.00     0.126 C 
HETATM   24  C   UNL     1      -2.128  15.263  20.966  0.00  0.00     0.136 C 
HETATM   25  C   UNL     1      -3.031  14.346  20.397  0.00  0.00     0.104 C 
HETATM   26  C   UNL     1      -2.871  12.981  20.675  0.00  0.00     0.049 C 
BRANCH  23  27
HETATM   27  O   UNL     1      -0.160  15.721  22.244  0.00  0.00    -0.351 OA
HETATM   28  C   UNL     1      -0.309  15.905  23.656  0.00  0.00     0.210 C 
ENDBRANCH  23  27
BRANCH  24  29
HETATM   29  O   UNL     1      -2.252  16.635  20.926  0.00  0.00    -0.351 OA
HETATM   30  C   UNL     1      -1.742  17.320  19.787  0.00  0.00     0.210 C 
ENDBRANCH  24  29
BRANCH  25  31
HETATM   31  O   UNL     1      -4.071  14.816  19.636  0.00  0.00    -0.353 OA
HETATM   32  C   UNL     1      -5.095  13.907  19.238  0.00  0.00     0.210 C 
ENDBRANCH  25  31
ENDBRANCH  19  20
ENDBRANCH  15  19
ENDBRANCH   5   6
ENDBRANCH   4   5
ENDBRANCH   1   4
TORSDOF 9
ENDMDL
MODEL 6
REMARK VINA RESULT:    -7.050      4.531      6.797
REMARK INTER + INTRA:         -12.022
REMARK INTER:                 -10.599
REMARK INTRA:                  -1.423
REMARK UNBOUND:                -1.470
REMARK  9 active torsions:
REMARK  status: ('A' for Active; 'I' for Inactive)
REMARK    1  A    between atoms: C_5  and  N_6 
REMARK    2  A    between atoms: C_10  and  C_17 
REMARK    3  A    between atoms: N_11  and  C_12 
REMARK    4  A    between atoms: C_12  and  C_13 
REMARK    5  A    between atoms: C_13  and  C_14 
REMARK    6  A    between atoms: C_17  and  C_18 
REMARK    7  A    between atoms: C_21  and  O_22 
REMARK    8  A    between atoms: C_24  and  O_25 
REMARK    9  A    between atoms: C_27  and  O_29 
ROOT
HETATM    1  C   UNL     1      -1.375  15.984  20.649  0.00  0.00     0.094 C 
HETATM    2  C   UNL     1      -2.662  16.534  20.205  0.00  0.00    -0.117 C 
HETATM    3  C   UNL     1      -3.711  16.996  19.841  0.00  0.00     0.012 C 
ENDROOT
BRANCH   1   4
HETATM    4  C   UNL     1      -0.298  17.062  20.767  0.00  0.00     0.032 C 
BRANCH   4   5
HETATM    5  C   UNL     1       0.186  17.329  22.202  0.00  0.00     0.133 C 
BRANCH   5   6
HETATM    6  N   UNL     1       0.642  16.154  22.920  0.00  0.00    -0.317 N 
HETATM    7  C   UNL     1       1.914  15.640  22.835  0.00  0.00     0.168 A 
HETATM    8  N   UNL     1       2.959  16.101  22.130  0.00  0.00    -0.182 NA
HETATM    9  C   UNL     1       1.922  14.557  23.689  0.00  0.00     0.145 A 
HETATM   10  C   UNL     1       4.076  15.377  22.370  0.00  0.00     0.312 A 
HETATM   11  F   UNL     1       5.184  15.782  21.732  0.00  0.00    -0.161 F 
HETATM   12  N   UNL     1       4.220  14.323  23.202  0.00  0.00    -0.189 NA
HETATM   13  C   UNL     1       3.134  13.881  23.867  0.00  0.00     0.138 A 
HETATM   14  N   UNL     1       0.714  14.402  24.301  0.00  0.00    -0.228 NA
HETATM   15  C   UNL     1      -0.006  15.443  23.916  0.00  0.00     0.113 C 
BRANCH  13  16
HETATM   16  N   UNL     1       3.256  12.842  24.775  0.00  0.00    -0.285 NA
HETATM   17  H   UNL     1       3.240  13.157  25.736  0.00  0.00     0.125 HD
HETATM   18  H   UNL     1       2.662  12.048  24.541  0.00  0.00     0.125 HD
ENDBRANCH  13  16
BRANCH  15  19
HETATM   19  C   UNL     1      -1.233  15.850  24.651  0.00  0.00     0.119 C 
BRANCH  19  20
HETATM   20  C   UNL     1      -2.315  14.769  24.712  0.00  0.00    -0.024 C 
HETATM   21  C   UNL     1      -2.534  14.068  25.906  0.00  0.00     0.077 C 
HETATM   22 CL   UNL     1      -2.003  14.805  27.391  0.00  0.00    -0.081 Cl
HETATM   23  C   UNL     1      -3.293  12.884  25.910  0.00  0.00     0.126 C 
HETATM   24  C   UNL     1      -4.074  12.544  24.775  0.00  0.00     0.136 C 
HETATM   25  C   UNL     1      -4.018  13.357  23.628  0.00  0.00     0.104 C 
HETATM   26  C   UNL     1      -3.097  14.412  23.595  0.00  0.00     0.049 C 
BRANCH  23  27
HETATM   27  O   UNL     1      -3.377  12.048  27.007  0.00  0.00    -0.351 OA
HETATM   28  C   UNL     1      -2.287  11.129  27.135  0.00  0.00     0.210 C 
ENDBRANCH  23  27
BRANCH  24  29
HETATM   29  O   UNL     1      -4.799  11.377  24.891  0.00  0.00    -0.351 OA
HETATM   30  C   UNL     1      -4.405  10.263  24.097  0.00  0.00     0.210 C 
ENDBRANCH  24  29
BRANCH  25  31
HETATM   31  O   UNL     1      -4.824  13.060  22.558  0.00  0.00    -0.353 OA
HETATM   32  C   UNL     1      -4.928  14.006  21.495  0.00  0.00     0.210 C 
ENDBRANCH  25  31
ENDBRANCH  19  20
ENDBRANCH  15  19
ENDBRANCH   5   6
ENDBRANCH   4   5
ENDBRANCH   1   4
TORSDOF 9
ENDMDL
MODEL 7
REMARK VINA RESULT:    -6.962      4.097      6.809
REMARK INTER + INTRA:         -11.892
REMARK INTER:                 -10.837
REMARK INTRA:                  -1.054
REMARK UNBOUND:                -1.470
REMARK  9 active torsions:
REMARK  status: ('A' for Active; 'I' for Inactive)
REMARK    1  A    between atoms: C_5  and  N_6 
REMARK    2  A    between atoms: C_10  and  C_17 
REMARK    3  A    between atoms: N_11  and  C_12 
REMARK    4  A    between atoms: C_12  and  C_13 
REMARK    5  A    between atoms: C_13  and  C_14 
REMARK    6  A    between atoms: C_17  and  C_18 
REMARK    7  A    between atoms: C_21  and  O_22 
REMARK    8  A    between atoms: C_24  and  O_25 
REMARK    9  A    between atoms: C_27  and  O_29 
ROOT
HETATM    1  C   UNL     1       2.582  14.127  23.140  0.00  0.00     0.094 C 
HETATM    2  C   UNL     1       3.755  14.366  22.291  0.00  0.00    -0.117 C 
HETATM    3  C   UNL     1       4.709  14.561  21.584  0.00  0.00     0.012 C 
ENDROOT
BRANCH   1   4
HETATM    4  C   UNL     1       1.332  13.809  22.321  0.00  0.00     0.032 C 
BRANCH   4   5
HETATM    5  C   UNL     1       0.009  13.942  23.093  0.00  0.00     0.133 C 
BRANCH   5   6
HETATM    6  N   UNL     1      -1.164  13.477  22.376  0.00  0.00    -0.317 N 
HETATM    7  C   UNL     1      -1.973  14.283  21.612  0.00  0.00     0.168 A 
HETATM    8  N   UNL     1      -1.848  15.595  21.355  0.00  0.00    -0.182 NA
HETATM    9  C   UNL     1      -2.936  13.440  21.098  0.00  0.00     0.145 A 
HETATM   10  C   UNL     1      -2.792  16.020  20.484  0.00  0.00     0.312 A 
HETATM   11  F   UNL     1      -2.730  17.316  20.141  0.00  0.00    -0.161 F 
HETATM   12  N   UNL     1      -3.762  15.293  19.889  0.00  0.00    -0.189 NA
HETATM   13  C   UNL     1      -3.862  13.985  20.201  0.00  0.00     0.138 A 
HETATM   14  N   UNL     1      -2.736  12.155  21.503  0.00  0.00    -0.228 NA
HETATM   15  C   UNL     1      -1.596  12.177  22.175  0.00  0.00     0.113 C 
BRANCH  13  16
HETATM   16  N   UNL     1      -4.805  13.194  19.564  0.00  0.00    -0.285 NA
HETATM   17  H   UNL     1      -4.843  12.254  19.934  0.00  0.00     0.125 HD
HETATM   18  H   UNL     1      -5.695  13.675  19.437  0.00  0.00     0.125 HD
ENDBRANCH  13  16
BRANCH  15  19
HETATM   19  C   UNL     1      -0.836  10.929  22.451  0.00  0.00     0.119 C 
BRANCH  19  20
HETATM   20  C   UNL     1      -0.882  10.478  23.912  0.00  0.00    -0.024 C 
HETATM   21  C   UNL     1      -0.096   9.395  24.334  0.00  0.00     0.077 C 
HETATM   22 CL   UNL     1       1.293   8.976  23.371  0.00  0.00    -0.081 Cl
HETATM   23  C   UNL     1      -0.340   8.774  25.571  0.00  0.00     0.126 C 
HETATM   24  C   UNL     1      -1.184   9.405  26.522  0.00  0.00     0.136 C 
HETATM   25  C   UNL     1      -1.829  10.609  26.184  0.00  0.00     0.104 C 
HETATM   26  C   UNL     1      -1.717  11.087  24.871  0.00  0.00     0.049 C 
BRANCH  23  27
HETATM   27  O   UNL     1       0.262   7.589  25.950  0.00  0.00    -0.351 OA
HETATM   28  C   UNL     1      -0.270   6.424  25.311  0.00  0.00     0.210 C 
ENDBRANCH  23  27
BRANCH  24  29
HETATM   29  O   UNL     1      -1.337   8.724  27.712  0.00  0.00    -0.351 OA
HETATM   30  C   UNL     1      -0.497   9.086  28.802  0.00  0.00     0.210 C 
ENDBRANCH  24  29
BRANCH  25  31
HETATM   31  O   UNL     1      -2.591  11.248  27.128  0.00  0.00    -0.353 OA
HETATM   32  C   UNL     1      -3.996  11.001  27.157  0.00  0.00     0.210 C 
ENDBRANCH  25  31
ENDBRANCH  19  20
ENDBRANCH  15  19
ENDBRANCH   5   6
ENDBRANCH   4   5
ENDBRANCH   1   4
TORSDOF 9
ENDMDL
MODEL 8
REMARK VINA RESULT:    -6.888      4.068      6.674
REMARK INTER + INTRA:         -11.780
REMARK INTER:                 -10.273
REMARK INTRA:                  -1.507
REMARK UNBOUND:                -1.470
REMARK  9 active torsions:
REMARK  status: ('A' for Active; 'I' for Inactive)
REMARK    1  A    between atoms: C_5  and  N_6 
REMARK    2  A    between atoms: C_10  and  C_17 
REMARK    3  A    between atoms: N_11  and  C_12 
REMARK    4  A    between atoms: C_12  and  C_13 
REMARK    5  A    between atoms: C_13  and  C_14 
REMARK    6  A    between atoms: C_17  and  C_18 
REMARK    7  A    between atoms: C_21  and  O_22 
REMARK    8  A    between atoms: C_24  and  O_25 
REMARK    9  A    between atoms: C_27  and  O_29 
ROOT
HETATM    1  C   UNL     1      -1.603  14.652  24.842  0.00  0.00     0.094 C 
HETATM    2  C   UNL     1      -1.757  14.679  26.301  0.00  0.00    -0.117 C 
HETATM    3  C   UNL     1      -1.872  14.699  27.499  0.00  0.00     0.012 C 
ENDROOT
BRANCH   1   4
HETATM    4  C   UNL     1      -0.171  14.326  24.419  0.00  0.00     0.032 C 
BRANCH   4   5
HETATM    5  C   UNL     1      -0.008  13.962  22.934  0.00  0.00     0.133 C 
BRANCH   5   6
HETATM    6  N   UNL     1      -1.221  13.507  22.282  0.00  0.00    -0.317 N 
HETATM    7  C   UNL     1      -2.048  14.313  21.536  0.00  0.00     0.168 A 
HETATM    8  N   UNL     1      -1.909  15.616  21.245  0.00  0.00    -0.182 NA
HETATM    9  C   UNL     1      -3.050  13.480  21.085  0.00  0.00     0.145 A 
HETATM   10  C   UNL     1      -2.882  16.042  20.407  0.00  0.00     0.312 A 
HETATM   11  F   UNL     1      -2.810  17.329  20.033  0.00  0.00    -0.161 F 
HETATM   12  N   UNL     1      -3.892  15.324  19.873  0.00  0.00    -0.189 NA
HETATM   13  C   UNL     1      -4.005  14.025  20.218  0.00  0.00     0.138 A 
HETATM   14  N   UNL     1      -2.858  12.200  21.509  0.00  0.00    -0.228 NA
HETATM   15  C   UNL     1      -1.689  12.213  22.129  0.00  0.00     0.113 C 
BRANCH  13  16
HETATM   16  N   UNL     1      -4.991  13.241  19.642  0.00  0.00    -0.285 NA
HETATM   17  H   UNL     1      -4.887  12.258  19.858  0.00  0.00     0.125 HD
HETATM   18  H   UNL     1      -5.922  13.641  19.755  0.00  0.00     0.125 HD
ENDBRANCH  13  16
BRANCH  15  19
HETATM   19  C   UNL     1      -0.941  10.955  22.399  0.00  0.00     0.119 C 
BRANCH  19  20
HETATM   20  C   UNL     1      -0.983  10.503  23.860  0.00  0.00    -0.024 C 
HETATM   21  C   UNL     1      -0.161   9.450  24.288  0.00  0.00     0.077 C 
HETATM   22 CL   UNL     1       1.250   9.081  23.337  0.00  0.00    -0.081 Cl
HETATM   23  C   UNL     1      -0.393   8.821  25.524  0.00  0.00     0.126 C 
HETATM   24  C   UNL     1      -1.266   9.421  26.468  0.00  0.00     0.136 C 
HETATM   25  C   UNL     1      -1.952  10.601  26.124  0.00  0.00     0.104 C 
HETATM   26  C   UNL     1      -1.847  11.082  24.811  0.00  0.00     0.049 C 
BRANCH  23  27
HETATM   27  O   UNL     1       0.250   7.659  25.908  0.00  0.00    -0.351 OA
HETATM   28  C   UNL     1      -0.274   6.468  25.312  0.00  0.00     0.210 C 
ENDBRANCH  23  27
BRANCH  24  29
HETATM   29  O   UNL     1      -1.404   8.736  27.657  0.00  0.00    -0.351 OA
HETATM   30  C   UNL     1      -0.566   9.111  28.745  0.00  0.00     0.210 C 
ENDBRANCH  24  29
BRANCH  25  31
HETATM   31  O   UNL     1      -2.744  11.212  27.062  0.00  0.00    -0.353 OA
HETATM   32  C   UNL     1      -4.029  11.690  26.667  0.00  0.00     0.210 C 
ENDBRANCH  25  31
ENDBRANCH  19  20
ENDBRANCH  15  19
ENDBRANCH   5   6
ENDBRANCH   4   5
ENDBRANCH   1   4
TORSDOF 9
ENDMDL
MODEL 9
REMARK VINA RESULT:    -6.804      4.001      6.439
REMARK INTER + INTRA:         -11.654
REMARK INTER:                 -10.184
REMARK INTRA:                  -1.470
REMARK UNBOUND:                -1.470
REMARK  9 active torsions:
REMARK  status: ('A' for Active; 'I' for Inactive)
REMARK    1  A    between atoms: C_5  and  N_6 
REMARK    2  A    between atoms: C_10  and  C_17 
REMARK    3  A    between atoms: N_11  and  C_12 
REMARK    4  A    between atoms: C_12  and  C_13 
REMARK    5  A    between atoms: C_13  and  C_14 
REMARK    6  A    between atoms: C_17  and  C_18 
REMARK    7  A    between atoms: C_21  and  O_22 
REMARK    8  A    between atoms: C_24  and  O_25 
REMARK    9  A    between atoms: C_27  and  O_29 
ROOT
HETATM    1  C   UNL     1      -3.822  15.244  21.339  0.00  0.00     0.094 C 
HETATM    2  C   UNL     1      -4.473  14.604  20.189  0.00  0.00    -0.117 C 
HETATM    3  C   UNL     1      -5.010  14.070  19.255  0.00  0.00     0.012 C 
ENDROOT
BRANCH   1   4
HETATM    4  C   UNL     1      -3.883  14.374  22.594  0.00  0.00     0.032 C 
BRANCH   4   5
HETATM    5  C   UNL     1      -2.529  14.155  23.288  0.00  0.00     0.133 C 
BRANCH   5   6
HETATM    6  N   UNL     1      -1.438  13.802  22.399  0.00  0.00    -0.317 N 
HETATM    7  C   UNL     1      -0.323  14.580  22.196  0.00  0.00     0.168 A 
HETATM    8  N   UNL     1      -0.006  15.755  22.762  0.00  0.00    -0.182 NA
HETATM    9  C   UNL     1       0.457  13.865  21.312  0.00  0.00     0.145 A 
HETATM   10  C   UNL     1       1.222  16.174  22.378  0.00  0.00     0.312 A 
HETATM   11  F   UNL     1       1.641  17.329  22.917  0.00  0.00    -0.161 F 
HETATM   12  N   UNL     1       2.090  15.554  21.550  0.00  0.00    -0.189 NA
HETATM   13  C   UNL     1       1.713  14.389  20.986  0.00  0.00     0.138 A 
HETATM   14  N   UNL     1      -0.128  12.679  20.984  0.00  0.00    -0.228 NA
HETATM   15  C   UNL     1      -1.212  12.606  21.739  0.00  0.00     0.113 C 
BRANCH  13  16
HETATM   16  N   UNL     1       2.601  13.694  20.180  0.00  0.00    -0.285 NA
HETATM   17  H   UNL     1       2.842  12.786  20.555  0.00  0.00     0.125 HD
HETATM   18  H   UNL     1       2.344  13.732  19.195  0.00  0.00     0.125 HD
ENDBRANCH  13  16
BRANCH  15  19
HETATM   19  C   UNL     1      -1.913  11.314  21.965  0.00  0.00     0.119 C 
BRANCH  19  20
HETATM   20  C   UNL     1      -1.552  10.628  23.284  0.00  0.00    -0.024 C 
HETATM   21  C   UNL     1      -2.444  10.680  24.365  0.00  0.00     0.077 C 
HETATM   22 CL   UNL     1      -4.120  11.004  24.020  0.00  0.00    -0.081 Cl
HETATM   23  C   UNL     1      -2.020  10.330  25.659  0.00  0.00     0.126 C 
HETATM   24  C   UNL     1      -0.784   9.656  25.837  0.00  0.00     0.136 C 
HETATM   25  C   UNL     1       0.040   9.416  24.722  0.00  0.00     0.104 C 
HETATM   26  C   UNL     1      -0.328   9.958  23.483  0.00  0.00     0.049 C 
BRANCH  23  27
HETATM   27  O   UNL     1      -2.787  10.550  26.787  0.00  0.00    -0.351 OA
HETATM   28  C   UNL     1      -2.838  11.916  27.211  0.00  0.00     0.210 C 
ENDBRANCH  23  27
BRANCH  24  29
HETATM   29  O   UNL     1      -0.473   9.338  27.142  0.00  0.00    -0.351 OA
HETATM   30  C   UNL     1      -0.599   7.978  27.546  0.00  0.00     0.210 C 
ENDBRANCH  24  29
BRANCH  25  31
HETATM   31  O   UNL     1       1.203   8.707  24.889  0.00  0.00    -0.353 OA
HETATM   32  C   UNL     1       1.806   8.099  23.749  0.00  0.00     0.210 C 
ENDBRANCH  25  31
ENDBRANCH  19  20
ENDBRANCH  15  19
ENDBRANCH   5   6
ENDBRANCH   4   5
ENDBRANCH   1   4
TORSDOF 9
ENDMDL
