MODEL 1
REMARK VINA RESULT:    -6.518      0.000      0.000
REMARK INTER + INTRA:         -11.512
REMARK INTER:                 -10.370
REMARK INTRA:                  -1.142
REMARK UNBOUND:                -1.755
REMARK  9 active torsions:
REMARK  status: ('A' for Active; 'I' for Inactive)
REMARK    1  A    between atoms: C_5  and  N_6 
REMARK    2  A    between atoms: C_10  and  C_17 
REMARK    3  A    between atoms: N_11  and  C_12 
REMARK    4  A    between atoms: C_12  and  C_13 
REMARK    5  A    between atoms: C_13  and  C_14 
REMARK    6  A    between atoms: C_17  and  C_18 
REMARK    7  A    between atoms: C_21  and  O_22 
REMARK    8  A    between atoms: C_24  and  O_25 
REMARK    9  A    between atoms: C_27  and  O_29 
ROOT
HETATM    1  C   UNL     1       3.802  10.337  23.464  0.00  0.00     0.094 C 
HETATM    2  C   UNL     1       4.268   9.730  22.211  0.00  0.00    -0.117 C 
HETATM    3  C   UNL     1       4.645   9.222  21.188  0.00  0.00     0.012 C 
ENDROOT
BRANCH   1   4
HETATM    4  C   UNL     1       3.085   9.328  24.361  0.00  0.00     0.032 C 
BRANCH   4   5
HETATM    5  C   UNL     1       2.217   9.956  25.464  0.00  0.00     0.133 C 
BRANCH   5   6
HETATM    6  N   UNL     1       0.812  10.092  25.129  0.00  0.00    -0.317 N 
HETATM    7  C   UNL     1       0.239  11.247  24.652  0.00  0.00     0.168 A 
HETATM    8  N   UNL     1       0.825  12.425  24.384  0.00  0.00    -0.182 NA
HETATM    9  C   UNL     1      -1.087  10.930  24.444  0.00  0.00     0.145 A 
HETATM   10  C   UNL     1      -0.052  13.301  23.842  0.00  0.00     0.312 A 
HETATM   11  F   UNL     1       0.448  14.500  23.510  0.00  0.00    -0.161 F 
HETATM   12  N   UNL     1      -1.358  13.103  23.559  0.00  0.00    -0.189 NA
HETATM   13  C   UNL     1      -1.906  11.912  23.873  0.00  0.00     0.138 A 
HETATM   14  N   UNL     1      -1.340   9.629  24.757  0.00  0.00    -0.228 NA
HETATM   15  C   UNL     1      -0.160   9.109  25.055  0.00  0.00     0.113 C 
BRANCH  13  16
HETATM   16  N   UNL     1      -3.225  11.650  23.542  0.00  0.00    -0.285 NA
HETATM   17  H   UNL     1      -3.361  10.717  23.179  0.00  0.00     0.125 HD
HETATM   18  H   UNL     1      -3.877  11.964  24.261  0.00  0.00     0.125 HD
ENDBRANCH  13  16
BRANCH  15  19
HETATM   19  C   UNL     1       0.055   7.637  25.076  0.00  0.00     0.119 C 
BRANCH  19  20
HETATM   20  C   UNL     1       0.579   7.099  26.409  0.00  0.00    -0.024 C 
HETATM   21  C   UNL     1       1.488   6.031  26.421  0.00  0.00     0.077 C 
HETATM   22 CL   UNL     1       2.412   5.733  24.976  0.00  0.00    -0.081 Cl
HETATM   23  C   UNL     1       1.747   5.329  27.611  0.00  0.00     0.126 C 
HETATM   24  C   UNL     1       1.319   5.863  28.854  0.00  0.00     0.136 C 
HETATM   25  C   UNL     1       0.569   7.054  28.872  0.00  0.00     0.104 C 
HETATM   26  C   UNL     1       0.162   7.613  27.653  0.00  0.00     0.049 C 
BRANCH  23  27
HETATM   27  O   UNL     1       2.473   4.153  27.647  0.00  0.00    -0.351 OA
HETATM   28  C   UNL     1       1.744   2.995  27.224  0.00  0.00     0.210 C 
ENDBRANCH  23  27
BRANCH  24  29
HETATM   29  O   UNL     1       1.645   5.109  29.961  0.00  0.00    -0.351 OA
HETATM   30  C   UNL     1       2.882   5.377  30.612  0.00  0.00     0.210 C 
ENDBRANCH  24  29
BRANCH  25  31
HETATM   31  O   UNL     1       0.212   7.602  30.078  0.00  0.00    -0.353 OA
HETATM   32  C   UNL     1       1.070   8.577  30.669  0.00  0.00     0.210 C 
ENDBRANCH  25  31
ENDBRANCH  19  20
ENDBRANCH  15  19
ENDBRANCH   5   6
ENDBRANCH   4   5
ENDBRANCH   1   4
TORSDOF 9
ENDMDL
MODEL 2
REMARK VINA RESULT:    -6.506      2.293      4.465
REMARK INTER + INTRA:         -11.494
REMARK INTER:                 -10.005
REMARK INTRA:                  -1.489
REMARK UNBOUND:                -1.755
REMARK  9 active torsions:
REMARK  status: ('A' for Active; 'I' for Inactive)
REMARK    1  A    between atoms: C_5  and  N_6 
REMARK    2  A    between atoms: C_10  and  C_17 
REMARK    3  A    between atoms: N_11  and  C_12 
REMARK    4  A    between atoms: C_12  and  C_13 
REMARK    5  A    between atoms: C_13  and  C_14 
REMARK    6  A    between atoms: C_17  and  C_18 
REMARK    7  A    between atoms: C_21  and  O_22 
REMARK    8  A    between atoms: C_24  and  O_25 
REMARK    9  A    between atoms: C_27  and  O_29 
ROOT
HETATM    1  C   UNL     1      -1.407  11.560  23.801  0.00  0.00     0.094 C 
HETATM    2  C   UNL     1      -0.574  12.766  23.881  0.00  0.00    -0.117 C 
HETATM    3  C   UNL     1       0.110  13.753  23.959  0.00  0.00     0.012 C 
ENDROOT
BRANCH   1   4
HETATM    4  C   UNL     1      -1.579  10.887  25.163  0.00  0.00     0.032 C 
BRANCH   4   5
HETATM    5  C   UNL     1      -0.267  10.626  25.920  0.00  0.00     0.133 C 
BRANCH   5   6
HETATM    6  N   UNL     1       0.503   9.497  25.434  0.00  0.00    -0.317 N 
HETATM    7  C   UNL     1       1.678   9.606  24.729  0.00  0.00     0.168 A 
HETATM    8  N   UNL     1       2.344  10.718  24.377  0.00  0.00    -0.182 NA
HETATM    9  C   UNL     1       2.079   8.308  24.495  0.00  0.00     0.145 A 
HETATM   10  C   UNL     1       3.513  10.420  23.764  0.00  0.00     0.312 A 
HETATM   11  F   UNL     1       4.267  11.469  23.402  0.00  0.00    -0.161 F 
HETATM   12  N   UNL     1       4.030   9.200  23.508  0.00  0.00    -0.189 NA
HETATM   13  C   UNL     1       3.309   8.115  23.856  0.00  0.00     0.138 A 
HETATM   14  N   UNL     1       1.208   7.415  25.043  0.00  0.00    -0.228 NA
HETATM   15  C   UNL     1       0.329   8.150  25.706  0.00  0.00     0.113 C 
BRANCH  13  16
HETATM   16  N   UNL     1       3.834   6.847  23.665  0.00  0.00    -0.285 NA
HETATM   17  H   UNL     1       4.827   6.801  23.851  0.00  0.00     0.125 HD
HETATM   18  H   UNL     1       3.254   6.119  24.080  0.00  0.00     0.125 HD
ENDBRANCH  13  16
BRANCH  15  19
HETATM   19  C   UNL     1      -0.550   7.555  26.748  0.00  0.00     0.119 C 
BRANCH  19  20
HETATM   20  C   UNL     1       0.206   6.913  27.913  0.00  0.00    -0.024 C 
HETATM   21  C   UNL     1       0.606   7.701  29.003  0.00  0.00     0.077 C 
HETATM   22 CL   UNL     1      -0.235   9.201  29.274  0.00  0.00    -0.081 Cl
HETATM   23  C   UNL     1       1.549   7.216  29.926  0.00  0.00     0.126 C 
HETATM   24  C   UNL     1       1.889   5.838  29.929  0.00  0.00     0.136 C 
HETATM   25  C   UNL     1       1.334   4.986  28.955  0.00  0.00     0.104 C 
HETATM   26  C   UNL     1       0.558   5.549  27.933  0.00  0.00     0.049 C 
BRANCH  23  27
HETATM   27  O   UNL     1       2.128   8.010  30.897  0.00  0.00    -0.351 OA
HETATM   28  C   UNL     1       3.113   8.925  30.405  0.00  0.00     0.210 C 
ENDBRANCH  23  27
BRANCH  24  29
HETATM   29  O   UNL     1       2.804   5.462  30.890  0.00  0.00    -0.351 OA
HETATM   30  C   UNL     1       4.163   5.313  30.496  0.00  0.00     0.210 C 
ENDBRANCH  24  29
BRANCH  25  31
HETATM   31  O   UNL     1       1.614   3.645  29.003  0.00  0.00    -0.353 OA
HETATM   32  C   UNL     1       1.184   2.816  27.924  0.00  0.00     0.210 C 
ENDBRANCH  25  31
ENDBRANCH  19  20
ENDBRANCH  15  19
ENDBRANCH   5   6
ENDBRANCH   4   5
ENDBRANCH   1   4
TORSDOF 9
ENDMDL
MODEL 3
REMARK VINA RESULT:    -6.504      5.017      7.064
REMARK INTER + INTRA:         -11.492
REMARK INTER:                  -9.953
REMARK INTRA:                  -1.539
REMARK UNBOUND:                -1.755
REMARK  9 active torsions:
REMARK  status: ('A' for Active; 'I' for Inactive)
REMARK    1  A    between atoms: C_5  and  N_6 
REMARK    2  A    between atoms: C_10  and  C_17 
REMARK    3  A    between atoms: N_11  and  C_12 
REMARK    4  A    between atoms: C_12  and  C_13 
REMARK    5  A    between atoms: C_13  and  C_14 
REMARK    6  A    between atoms: C_17  and  C_18 
REMARK    7  A    between atoms: C_21  and  O_22 
REMARK    8  A    between atoms: C_24  and  O_25 
REMARK    9  A    between atoms: C_27  and  O_29 
ROOT
HETATM    1  C   UNL     1       4.634   3.355  22.401  0.00  0.00     0.094 C 
HETATM    2  C   UNL     1       5.373   4.183  23.362  0.00  0.00    -0.117 C 
HETATM    3  C   UNL     1       5.974   4.872  24.143  0.00  0.00     0.012 C 
ENDROOT
BRANCH   1   4
HETATM    4  C   UNL     1       3.928   4.196  21.338  0.00  0.00     0.032 C 
BRANCH   4   5
HETATM    5  C   UNL     1       4.870   4.995  20.423  0.00  0.00     0.133 C 
BRANCH   5   6
HETATM    6  N   UNL     1       4.378   6.303  20.036  0.00  0.00    -0.317 N 
HETATM    7  C   UNL     1       3.540   6.530  18.970  0.00  0.00     0.168 A 
HETATM    8  N   UNL     1       3.005   5.639  18.120  0.00  0.00    -0.182 NA
HETATM    9  C   UNL     1       3.304   7.889  18.981  0.00  0.00     0.145 A 
HETATM   10  C   UNL     1       2.155   6.234  17.251  0.00  0.00     0.312 A 
HETATM   11  F   UNL     1       1.545   5.417  16.378  0.00  0.00    -0.161 F 
HETATM   12  N   UNL     1       1.816   7.539  17.180  0.00  0.00    -0.189 NA
HETATM   13  C   UNL     1       2.402   8.398  18.039  0.00  0.00     0.138 A 
HETATM   14  N   UNL     1       3.948   8.494  20.018  0.00  0.00    -0.228 NA
HETATM   15  C   UNL     1       4.493   7.507  20.711  0.00  0.00     0.113 C 
BRANCH  13  16
HETATM   16  N   UNL     1       2.034   9.733  18.038  0.00  0.00    -0.285 NA
HETATM   17  H   UNL     1       1.450   9.980  18.825  0.00  0.00     0.125 HD
HETATM   18  H   UNL     1       2.818  10.353  17.834  0.00  0.00     0.125 HD
ENDBRANCH  13  16
BRANCH  15  19
HETATM   19  C   UNL     1       4.952   7.706  22.112  0.00  0.00     0.119 C 
BRANCH  19  20
HETATM   20  C   UNL     1       3.835   8.079  23.089  0.00  0.00    -0.024 C 
HETATM   21  C   UNL     1       3.665   9.416  23.476  0.00  0.00     0.077 C 
HETATM   22 CL   UNL     1       4.318  10.652  22.438  0.00  0.00    -0.081 Cl
HETATM   23  C   UNL     1       2.863   9.742  24.584  0.00  0.00     0.126 C 
HETATM   24  C   UNL     1       1.999   8.764  25.142  0.00  0.00     0.136 C 
HETATM   25  C   UNL     1       2.014   7.454  24.626  0.00  0.00     0.104 C 
HETATM   26  C   UNL     1       2.971   7.122  23.658  0.00  0.00     0.049 C 
BRANCH  23  27
HETATM   27  O   UNL     1       2.817  11.010  25.132  0.00  0.00    -0.351 OA
HETATM   28  C   UNL     1       2.074  11.961  24.361  0.00  0.00     0.210 C 
ENDBRANCH  23  27
BRANCH  24  29
HETATM   29  O   UNL     1       1.239   9.193  26.209  0.00  0.00    -0.351 OA
HETATM   30  C   UNL     1      -0.129   9.507  25.971  0.00  0.00     0.210 C 
ENDBRANCH  24  29
BRANCH  25  31
HETATM   31  O   UNL     1       1.131   6.530  25.124  0.00  0.00    -0.353 OA
HETATM   32  C   UNL     1       1.567   5.657  26.165  0.00  0.00     0.210 C 
ENDBRANCH  25  31
ENDBRANCH  19  20
ENDBRANCH  15  19
ENDBRANCH   5   6
ENDBRANCH   4   5
ENDBRANCH   1   4
TORSDOF 9
ENDMDL
MODEL 4
REMARK VINA RESULT:    -6.450      4.527      6.887
REMARK INTER + INTRA:         -11.411
REMARK INTER:                 -10.045
REMARK INTRA:                  -1.366
REMARK UNBOUND:                -1.755
REMARK  9 active torsions:
REMARK  status: ('A' for Active; 'I' for Inactive)
REMARK    1  A    between atoms: C_5  and  N_6 
REMARK    2  A    between atoms: C_10  and  C_17 
REMARK    3  A    between atoms: N_11  and  C_12 
REMARK    4  A    between atoms: C_12  and  C_13 
REMARK    5  A    between atoms: C_13  and  C_14 
REMARK    6  A    between atoms: C_17  and  C_18 
REMARK    7  A    between atoms: C_21  and  O_22 
REMARK    8  A    between atoms: C_24  and  O_25 
REMARK    9  A    between atoms: C_27  and  O_29 
ROOT
HETATM    1  C   UNL     1       5.310   4.504  25.087  0.00  0.00     0.094 C 
HETATM    2  C   UNL     1       4.636   5.346  26.082  0.00  0.00    -0.117 C 
HETATM    3  C   UNL     1       4.077   6.042  26.889  0.00  0.00     0.012 C 
ENDROOT
BRANCH   1   4
HETATM    4  C   UNL     1       4.941   4.895  23.656  0.00  0.00     0.032 C 
BRANCH   4   5
HETATM    5  C   UNL     1       5.841   5.975  23.034  0.00  0.00     0.133 C 
BRANCH   5   6
HETATM    6  N   UNL     1       5.139   6.983  22.262  0.00  0.00    -0.317 N 
HETATM    7  C   UNL     1       4.831   6.860  20.928  0.00  0.00     0.168 A 
HETATM    8  N   UNL     1       5.077   5.831  20.102  0.00  0.00    -0.182 NA
HETATM    9  C   UNL     1       4.149   8.016  20.609  0.00  0.00     0.145 A 
HETATM   10  C   UNL     1       4.543   6.042  18.877  0.00  0.00     0.312 A 
HETATM   11  F   UNL     1       4.710   5.051  17.987  0.00  0.00    -0.161 F 
HETATM   12  N   UNL     1       3.831   7.107  18.453  0.00  0.00    -0.189 NA
HETATM   13  C   UNL     1       3.634   8.128  19.312  0.00  0.00     0.138 A 
HETATM   14  N   UNL     1       4.013   8.826  21.696  0.00  0.00    -0.228 NA
HETATM   15  C   UNL     1       4.512   8.134  22.708  0.00  0.00     0.113 C 
BRANCH  13  16
HETATM   16  N   UNL     1       2.857   9.209  18.933  0.00  0.00    -0.285 NA
HETATM   17  H   UNL     1       3.399   9.958  18.522  0.00  0.00     0.125 HD
HETATM   18  H   UNL     1       2.012   8.927  18.437  0.00  0.00     0.125 HD
ENDBRANCH  13  16
BRANCH  15  19
HETATM   19  C   UNL     1       4.208   8.497  24.118  0.00  0.00     0.119 C 
BRANCH  19  20
HETATM   20  C   UNL     1       2.739   8.841  24.374  0.00  0.00    -0.024 C 
HETATM   21  C   UNL     1       2.335  10.184  24.422  0.00  0.00     0.077 C 
HETATM   22 CL   UNL     1       3.350  11.366  23.643  0.00  0.00    -0.081 Cl
HETATM   23  C   UNL     1       1.079  10.533  24.948  0.00  0.00     0.126 C 
HETATM   24  C   UNL     1       0.103   9.527  25.169  0.00  0.00     0.136 C 
HETATM   25  C   UNL     1       0.432   8.179  24.932  0.00  0.00     0.104 C 
HETATM   26  C   UNL     1       1.756   7.858  24.602  0.00  0.00     0.049 C 
BRANCH  23  27
HETATM   27  O   UNL     1       0.708  11.839  25.204  0.00  0.00    -0.351 OA
HETATM   28  C   UNL     1       0.374  12.599  24.037  0.00  0.00     0.210 C 
ENDBRANCH  23  27
BRANCH  24  29
HETATM   29  O   UNL     1      -1.103   9.978  25.663  0.00  0.00    -0.351 OA
HETATM   30  C   UNL     1      -1.286   9.984  27.075  0.00  0.00     0.210 C 
ENDBRANCH  24  29
BRANCH  25  31
HETATM   31  O   UNL     1      -0.533   7.217  25.085  0.00  0.00    -0.353 OA
HETATM   32  C   UNL     1      -0.491   6.380  26.238  0.00  0.00     0.210 C 
ENDBRANCH  25  31
ENDBRANCH  19  20
ENDBRANCH  15  19
ENDBRANCH   5   6
ENDBRANCH   4   5
ENDBRANCH   1   4
TORSDOF 9
ENDMDL
MODEL 5
REMARK VINA RESULT:    -6.449      4.769      7.905
REMARK INTER + INTRA:         -11.409
REMARK INTER:                 -10.058
REMARK INTRA:                  -1.352
REMARK UNBOUND:                -1.755
REMARK  9 active torsions:
REMARK  status: ('A' for Active; 'I' for Inactive)
REMARK    1  A    between atoms: C_5  and  N_6 
REMARK    2  A    between atoms: C_10  and  C_17 
REMARK    3  A    between atoms: N_11  and  C_12 
REMARK    4  A    between atoms: C_12  and  C_13 
REMARK    5  A    between atoms: C_13  and  C_14 
REMARK    6  A    between atoms: C_17  and  C_18 
REMARK    7  A    between atoms: C_21  and  O_22 
REMARK    8  A    between atoms: C_24  and  O_25 
REMARK    9  A    between atoms: C_27  and  O_29 
ROOT
HETATM    1  C   UNL     1       3.497   8.645  29.649  0.00  0.00     0.094 C 
HETATM    2  C   UNL     1       2.484   8.836  30.694  0.00  0.00    -0.117 C 
HETATM    3  C   UNL     1       1.649   8.982  31.547  0.00  0.00     0.012 C 
ENDROOT
BRANCH   1   4
HETATM    4  C   UNL     1       3.317   7.321  28.907  0.00  0.00     0.032 C 
BRANCH   4   5
HETATM    5  C   UNL     1       2.289   6.368  29.538  0.00  0.00     0.133 C 
BRANCH   5   6
HETATM    6  N   UNL     1       1.340   5.791  28.605  0.00  0.00    -0.317 N 
HETATM    7  C   UNL     1       1.249   4.449  28.324  0.00  0.00     0.168 A 
HETATM    8  N   UNL     1       1.961   3.434  28.839  0.00  0.00    -0.182 NA
HETATM    9  C   UNL     1       0.211   4.340  27.422  0.00  0.00     0.145 A 
HETATM   10  C   UNL     1       1.522   2.239  28.381  0.00  0.00     0.312 A 
HETATM   11  F   UNL     1       2.154   1.159  28.865  0.00  0.00    -0.161 F 
HETATM   12  N   UNL     1       0.503   1.999  27.529  0.00  0.00    -0.189 NA
HETATM   13  C   UNL     1      -0.164   3.054  27.017  0.00  0.00     0.138 A 
HETATM   14  N   UNL     1      -0.343   5.556  27.157  0.00  0.00    -0.228 NA
HETATM   15  C   UNL     1       0.272   6.401  27.969  0.00  0.00     0.113 C 
BRANCH  13  16
HETATM   16  N   UNL     1      -1.254   2.845  26.188  0.00  0.00    -0.285 NA
HETATM   17  H   UNL     1      -1.905   3.618  26.194  0.00  0.00     0.125 HD
HETATM   18  H   UNL     1      -0.985   2.477  25.277  0.00  0.00     0.125 HD
ENDBRANCH  13  16
BRANCH  15  19
HETATM   19  C   UNL     1      -0.298   7.743  28.267  0.00  0.00     0.119 C 
BRANCH  19  20
HETATM   20  C   UNL     1      -0.040   8.788  27.180  0.00  0.00    -0.024 C 
HETATM   21  C   UNL     1      -0.968   9.818  26.968  0.00  0.00     0.077 C 
HETATM   22 CL   UNL     1      -2.055  10.214  28.269  0.00  0.00    -0.081 Cl
HETATM   23  C   UNL     1      -0.913  10.599  25.800  0.00  0.00     0.126 C 
HETATM   24  C   UNL     1       0.236  10.546  24.969  0.00  0.00     0.136 C 
HETATM   25  C   UNL     1       1.277   9.651  25.284  0.00  0.00     0.104 C 
HETATM   26  C   UNL     1       1.092   8.750  26.341  0.00  0.00     0.049 C 
BRANCH  23  27
HETATM   27  O   UNL     1      -1.909  11.487  25.442  0.00  0.00    -0.351 OA
HETATM   28  C   UNL     1      -2.929  10.928  24.607  0.00  0.00     0.210 C 
ENDBRANCH  23  27
BRANCH  24  29
HETATM   29  O   UNL     1       0.199  11.368  23.863  0.00  0.00    -0.351 OA
HETATM   30  C   UNL     1       0.714  12.689  23.994  0.00  0.00     0.210 C 
ENDBRANCH  24  29
BRANCH  25  31
HETATM   31  O   UNL     1       2.413   9.650  24.516  0.00  0.00    -0.353 OA
HETATM   32  C   UNL     1       2.957   8.399  24.099  0.00  0.00     0.210 C 
ENDBRANCH  25  31
ENDBRANCH  19  20
ENDBRANCH  15  19
ENDBRANCH   5   6
ENDBRANCH   4   5
ENDBRANCH   1   4
TORSDOF 9
ENDMDL
MODEL 6
REMARK VINA RESULT:    -6.407      4.648      7.724
REMARK INTER + INTRA:         -11.346
REMARK INTER:                  -9.555
REMARK INTRA:                  -1.791
REMARK UNBOUND:                -1.755
REMARK  9 active torsions:
REMARK  status: ('A' for Active; 'I' for Inactive)
REMARK    1  A    between atoms: C_5  and  N_6 
REMARK    2  A    between atoms: C_10  and  C_17 
REMARK    3  A    between atoms: N_11  and  C_12 
REMARK    4  A    between atoms: C_12  and  C_13 
REMARK    5  A    between atoms: C_13  and  C_14 
REMARK    6  A    between atoms: C_17  and  C_18 
REMARK    7  A    between atoms: C_21  and  O_22 
REMARK    8  A    between atoms: C_24  and  O_25 
REMARK    9  A    between atoms: C_27  and  O_29 
ROOT
HETATM    1  C   UNL     1       5.188   4.462  25.707  0.00  0.00     0.094 C 
HETATM    2  C   UNL     1       5.308   3.438  24.661  0.00  0.00    -0.117 C 
HETATM    3  C   UNL     1       5.394   2.599  23.804  0.00  0.00     0.012 C 
ENDROOT
BRANCH   1   4
HETATM    4  C   UNL     1       3.731   4.798  26.020  0.00  0.00     0.032 C 
BRANCH   4   5
HETATM    5  C   UNL     1       2.862   5.096  24.786  0.00  0.00     0.133 C 
BRANCH   5   6
HETATM    6  N   UNL     1       2.546   6.497  24.588  0.00  0.00    -0.317 N 
HETATM    7  C   UNL     1       1.505   7.150  25.205  0.00  0.00     0.168 A 
HETATM    8  N   UNL     1       0.621   6.667  26.092  0.00  0.00    -0.182 NA
HETATM    9  C   UNL     1       1.585   8.454  24.762  0.00  0.00     0.145 A 
HETATM   10  C   UNL     1      -0.205   7.638  26.545  0.00  0.00     0.312 A 
HETATM   11  F   UNL     1      -1.108   7.258  27.463  0.00  0.00    -0.161 F 
HETATM   12  N   UNL     1      -0.208   8.948  26.217  0.00  0.00    -0.189 NA
HETATM   13  C   UNL     1       0.682   9.378  25.300  0.00  0.00     0.138 A 
HETATM   14  N   UNL     1       2.640   8.624  23.916  0.00  0.00    -0.228 NA
HETATM   15  C   UNL     1       3.276   7.464  23.918  0.00  0.00     0.113 C 
BRANCH  13  16
HETATM   16  N   UNL     1       0.751  10.725  24.983  0.00  0.00    -0.285 NA
HETATM   17  H   UNL     1       1.587  10.965  24.468  0.00  0.00     0.125 HD
HETATM   18  H   UNL     1      -0.131  11.086  24.623  0.00  0.00     0.125 HD
ENDBRANCH  13  16
BRANCH  15  19
HETATM   19  C   UNL     1       4.678   7.349  23.434  0.00  0.00     0.119 C 
BRANCH  19  20
HETATM   20  C   UNL     1       4.802   6.928  21.968  0.00  0.00    -0.024 C 
HETATM   21  C   UNL     1       4.649   7.884  20.953  0.00  0.00     0.077 C 
HETATM   22 CL   UNL     1       4.893   9.557  21.368  0.00  0.00    -0.081 Cl
HETATM   23  C   UNL     1       4.456   7.484  19.619  0.00  0.00     0.126 C 
HETATM   24  C   UNL     1       4.697   6.136  19.245  0.00  0.00     0.136 C 
HETATM   25  C   UNL     1       5.051   5.197  20.232  0.00  0.00     0.104 C 
HETATM   26  C   UNL     1       5.035   5.595  21.576  0.00  0.00     0.049 C 
BRANCH  23  27
HETATM   27  O   UNL     1       4.103   8.364  18.613  0.00  0.00    -0.351 OA
HETATM   28  C   UNL     1       2.721   8.737  18.612  0.00  0.00     0.210 C 
ENDBRANCH  23  27
BRANCH  24  29
HETATM   29  O   UNL     1       4.502   5.855  17.909  0.00  0.00    -0.351 OA
HETATM   30  C   UNL     1       3.252   5.297  17.519  0.00  0.00     0.210 C 
ENDBRANCH  24  29
BRANCH  25  31
HETATM   31  O   UNL     1       5.345   3.911  19.857  0.00  0.00    -0.353 OA
HETATM   32  C   UNL     1       4.430   2.871  20.196  0.00  0.00     0.210 C 
ENDBRANCH  25  31
ENDBRANCH  19  20
ENDBRANCH  15  19
ENDBRANCH   5   6
ENDBRANCH   4   5
ENDBRANCH   1   4
TORSDOF 9
ENDMDL
MODEL 7
REMARK VINA RESULT:    -6.333      5.368      7.244
REMARK INTER + INTRA:         -11.235
REMARK INTER:                  -9.788
REMARK INTRA:                  -1.447
REMARK UNBOUND:                -1.755
REMARK  9 active torsions:
REMARK  status: ('A' for Active; 'I' for Inactive)
REMARK    1  A    between atoms: C_5  and  N_6 
REMARK    2  A    between atoms: C_10  and  C_17 
REMARK    3  A    between atoms: N_11  and  C_12 
REMARK    4  A    between atoms: C_12  and  C_13 
REMARK    5  A    between atoms: C_13  and  C_14 
REMARK    6  A    between atoms: C_17  and  C_18 
REMARK    7  A    between atoms: C_21  and  O_22 
REMARK    8  A    between atoms: C_24  and  O_25 
REMARK    9  A    between atoms: C_27  and  O_29 
ROOT
HETATM    1  C   UNL     1       4.599   2.832  20.450  0.00  0.00     0.094 C 
HETATM    2  C   UNL     1       4.841   2.292  19.107  0.00  0.00    -0.117 C 
HETATM    3  C   UNL     1       5.038   1.861  18.001  0.00  0.00     0.012 C 
ENDROOT
BRANCH   1   4
HETATM    4  C   UNL     1       4.153   4.294  20.412  0.00  0.00     0.032 C 
BRANCH   4   5
HETATM    5  C   UNL     1       5.054   5.217  19.576  0.00  0.00     0.133 C 
BRANCH   5   6
HETATM    6  N   UNL     1       4.458   6.491  19.219  0.00  0.00    -0.317 N 
HETATM    7  C   UNL     1       3.376   6.632  18.383  0.00  0.00     0.168 A 
HETATM    8  N   UNL     1       2.660   5.676  17.770  0.00  0.00    -0.182 NA
HETATM    9  C   UNL     1       3.127   7.987  18.343  0.00  0.00     0.145 A 
HETATM   10  C   UNL     1       1.609   6.199  17.098  0.00  0.00     0.312 A 
HETATM   11  F   UNL     1       0.814   5.316  16.475  0.00  0.00    -0.161 F 
HETATM   12  N   UNL     1       1.242   7.496  17.009  0.00  0.00    -0.189 NA
HETATM   13  C   UNL     1       2.010   8.420  17.620  0.00  0.00     0.138 A 
HETATM   14  N   UNL     1       4.001   8.674  19.132  0.00  0.00    -0.228 NA
HETATM   15  C   UNL     1       4.719   7.745  19.743  0.00  0.00     0.113 C 
BRANCH  13  16
HETATM   16  N   UNL     1       1.631   9.753  17.602  0.00  0.00    -0.285 NA
HETATM   17  H   UNL     1       0.636   9.876  17.474  0.00  0.00     0.125 HD
HETATM   18  H   UNL     1       2.070  10.292  18.348  0.00  0.00     0.125 HD
ENDBRANCH  13  16
BRANCH  15  19
HETATM   19  C   UNL     1       5.511   8.058  20.963  0.00  0.00     0.119 C 
BRANCH  19  20
HETATM   20  C   UNL     1       4.709   7.995  22.264  0.00  0.00    -0.024 C 
HETATM   21  C   UNL     1       4.769   6.846  23.067  0.00  0.00     0.077 C 
HETATM   22 CL   UNL     1       6.145   5.796  22.879  0.00  0.00    -0.081 Cl
HETATM   23  C   UNL     1       3.827   6.639  24.089  0.00  0.00     0.126 C 
HETATM   24  C   UNL     1       2.990   7.708  24.504  0.00  0.00     0.136 C 
HETATM   25  C   UNL     1       3.060   8.943  23.831  0.00  0.00     0.104 C 
HETATM   26  C   UNL     1       3.868   9.043  22.691  0.00  0.00     0.049 C 
BRANCH  23  27
HETATM   27  O   UNL     1       3.713   5.446  24.776  0.00  0.00    -0.351 OA
HETATM   28  C   UNL     1       3.143   4.376  24.014  0.00  0.00     0.210 C 
ENDBRANCH  23  27
BRANCH  24  29
HETATM   29  O   UNL     1       2.119   7.406  25.529  0.00  0.00    -0.351 OA
HETATM   30  C   UNL     1       0.756   7.164  25.199  0.00  0.00     0.210 C 
ENDBRANCH  24  29
BRANCH  25  31
HETATM   31  O   UNL     1       2.297   9.991  24.277  0.00  0.00    -0.353 OA
HETATM   32  C   UNL     1       2.846  11.307  24.232  0.00  0.00     0.210 C 
ENDBRANCH  25  31
ENDBRANCH  19  20
ENDBRANCH  15  19
ENDBRANCH   5   6
ENDBRANCH   4   5
ENDBRANCH   1   4
TORSDOF 9
ENDMDL
MODEL 8
REMARK VINA RESULT:    -6.290      3.586      6.289
REMARK INTER + INTRA:         -11.171
REMARK INTER:                  -9.808
REMARK INTRA:                  -1.363
REMARK UNBOUND:                -1.755
REMARK  9 active torsions:
REMARK  status: ('A' for Active; 'I' for Inactive)
REMARK    1  A    between atoms: C_5  and  N_6 
REMARK    2  A    between atoms: C_10  and  C_17 
REMARK    3  A    between atoms: N_11  and  C_12 
REMARK    4  A    between atoms: C_12  and  C_13 
REMARK    5  A    between atoms: C_13  and  C_14 
REMARK    6  A    between atoms: C_17  and  C_18 
REMARK    7  A    between atoms: C_21  and  O_22 
REMARK    8  A    between atoms: C_24  and  O_25 
REMARK    9  A    between atoms: C_27  and  O_29 
ROOT
HETATM    1  C   UNL     1       1.296   6.069  28.228  0.00  0.00     0.094 C 
HETATM    2  C   UNL     1       0.004   5.550  27.764  0.00  0.00    -0.117 C 
HETATM    3  C   UNL     1      -1.052   5.127  27.373  0.00  0.00     0.012 C 
ENDROOT
BRANCH   1   4
HETATM    4  C   UNL     1       2.183   6.527  27.070  0.00  0.00     0.032 C 
BRANCH   4   5
HETATM    5  C   UNL     1       2.503   8.030  27.064  0.00  0.00     0.133 C 
BRANCH   5   6
HETATM    6  N   UNL     1       1.685   8.824  26.166  0.00  0.00    -0.317 N 
HETATM    7  C   UNL     1       0.495   9.412  26.521  0.00  0.00     0.168 A 
HETATM    8  N   UNL     1      -0.123   9.402  27.713  0.00  0.00    -0.182 NA
HETATM    9  C   UNL     1       0.075  10.083  25.391  0.00  0.00     0.145 A 
HETATM   10  C   UNL     1      -1.236  10.171  27.699  0.00  0.00     0.312 A 
HETATM   11  F   UNL     1      -1.908  10.249  28.857  0.00  0.00    -0.161 F 
HETATM   12  N   UNL     1      -1.732  10.898  26.675  0.00  0.00    -0.189 NA
HETATM   13  C   UNL     1      -1.090  10.853  25.490  0.00  0.00     0.138 A 
HETATM   14  N   UNL     1       0.968   9.942  24.372  0.00  0.00    -0.228 NA
HETATM   15  C   UNL     1       1.988   9.279  24.894  0.00  0.00     0.113 C 
BRANCH  13  16
HETATM   16  N   UNL     1      -1.533  11.633  24.434  0.00  0.00    -0.285 NA
HETATM   17  H   UNL     1      -1.407  11.186  23.536  0.00  0.00     0.125 HD
HETATM   18  H   UNL     1      -2.443  12.054  24.616  0.00  0.00     0.125 HD
ENDBRANCH  13  16
BRANCH  15  19
HETATM   19  C   UNL     1       3.319   9.258  24.230  0.00  0.00     0.119 C 
BRANCH  19  20
HETATM   20  C   UNL     1       3.511   8.099  23.250  0.00  0.00    -0.024 C 
HETATM   21  C   UNL     1       3.991   8.352  21.956  0.00  0.00     0.077 C 
HETATM   22 CL   UNL     1       4.873   9.829  21.691  0.00  0.00    -0.081 Cl
HETATM   23  C   UNL     1       3.890   7.371  20.954  0.00  0.00     0.126 C 
HETATM   24  C   UNL     1       3.570   6.034  21.305  0.00  0.00     0.136 C 
HETATM   25  C   UNL     1       3.279   5.721  22.646  0.00  0.00     0.104 C 
HETATM   26  C   UNL     1       3.194   6.765  23.577  0.00  0.00     0.049 C 
BRANCH  23  27
HETATM   27  O   UNL     1       4.159   7.627  19.622  0.00  0.00    -0.351 OA
HETATM   28  C   UNL     1       3.137   8.365  18.944  0.00  0.00     0.210 C 
ENDBRANCH  23  27
BRANCH  24  29
HETATM   29  O   UNL     1       3.521   5.147  20.251  0.00  0.00    -0.351 OA
HETATM   30  C   UNL     1       2.243   4.790  19.736  0.00  0.00     0.210 C 
ENDBRANCH  24  29
BRANCH  25  31
HETATM   31  O   UNL     1       3.034   4.417  22.991  0.00  0.00    -0.353 OA
HETATM   32  C   UNL     1       3.182   4.029  24.356  0.00  0.00     0.210 C 
ENDBRANCH  25  31
ENDBRANCH  19  20
ENDBRANCH  15  19
ENDBRANCH   5   6
ENDBRANCH   4   5
ENDBRANCH   1   4
TORSDOF 9
ENDMDL
MODEL 9
REMARK VINA RESULT:    -6.285      4.639      6.966
REMARK INTER + INTRA:         -11.164
REMARK INTER:                  -9.408
REMARK INTRA:                  -1.755
REMARK UNBOUND:                -1.755
REMARK  9 active torsions:
REMARK  status: ('A' for Active; 'I' for Inactive)
REMARK    1  A    between atoms: C_5  and  N_6 
REMARK    2  A    between atoms: C_10  and  C_17 
REMARK    3  A    between atoms: N_11  and  C_12 
REMARK    4  A    between atoms: C_12  and  C_13 
REMARK    5  A    between atoms: C_13  and  C_14 
REMARK    6  A    between atoms: C_17  and  C_18 
REMARK    7  A    between atoms: C_21  and  O_22 
REMARK    8  A    between atoms: C_24  and  O_25 
REMARK    9  A    between atoms: C_27  and  O_29 
ROOT
HETATM    1  C   UNL     1       3.135   3.271  23.844  0.00  0.00     0.094 C 
HETATM    2  C   UNL     1       4.460   2.727  24.166  0.00  0.00    -0.117 C 
HETATM    3  C   UNL     1       5.549   2.284  24.419  0.00  0.00     0.012 C 
ENDROOT
BRANCH   1   4
HETATM    4  C   UNL     1       3.025   3.691  22.378  0.00  0.00     0.032 C 
BRANCH   4   5
HETATM    5  C   UNL     1       2.879   5.205  22.155  0.00  0.00     0.133 C 
BRANCH   5   6
HETATM    6  N   UNL     1       4.101   5.886  21.773  0.00  0.00    -0.317 N 
HETATM    7  C   UNL     1       4.339   6.408  20.524  0.00  0.00     0.168 A 
HETATM    8  N   UNL     1       3.529   6.423  19.454  0.00  0.00    -0.182 NA
HETATM    9  C   UNL     1       5.591   6.981  20.606  0.00  0.00     0.145 A 
HETATM   10  C   UNL     1       4.080   7.109  18.426  0.00  0.00     0.312 A 
HETATM   11  F   UNL     1       3.330   7.206  17.318  0.00  0.00    -0.161 F 
HETATM   12  N   UNL     1       5.274   7.739  18.392  0.00  0.00    -0.189 NA
HETATM   13  C   UNL     1       6.063   7.670  19.484  0.00  0.00     0.138 A 
HETATM   14  N   UNL     1       6.116   6.844  21.856  0.00  0.00    -0.228 NA
HETATM   15  C   UNL     1       5.155   6.287  22.576  0.00  0.00     0.113 C 
BRANCH  13  16
HETATM   16  N   UNL     1       7.267   8.355  19.509  0.00  0.00    -0.285 NA
HETATM   17  H   UNL     1       8.022   7.808  19.900  0.00  0.00     0.125 HD
HETATM   18  H   UNL     1       7.457   8.841  18.633  0.00  0.00     0.125 HD
ENDBRANCH  13  16
BRANCH  15  19
HETATM   19  C   UNL     1       5.183   6.322  24.063  0.00  0.00     0.119 C 
BRANCH  19  20
HETATM   20  C   UNL     1       4.113   7.218  24.689  0.00  0.00    -0.024 C 
HETATM   21  C   UNL     1       3.427   6.789  25.835  0.00  0.00     0.077 C 
HETATM   22 CL   UNL     1       4.177   5.566  26.821  0.00  0.00    -0.081 Cl
HETATM   23  C   UNL     1       2.250   7.438  26.247  0.00  0.00     0.126 C 
HETATM   24  C   UNL     1       1.903   8.694  25.684  0.00  0.00     0.136 C 
HETATM   25  C   UNL     1       2.702   9.238  24.661  0.00  0.00     0.104 C 
HETATM   26  C   UNL     1       3.750   8.465  24.142  0.00  0.00     0.049 C 
BRANCH  23  27
HETATM   27  O   UNL     1       1.427   6.944  27.242  0.00  0.00    -0.351 OA
HETATM   28  C   UNL     1       0.622   5.829  26.844  0.00  0.00     0.210 C 
ENDBRANCH  23  27
BRANCH  24  29
HETATM   29  O   UNL     1       0.743   9.256  26.175  0.00  0.00    -0.351 OA
HETATM   30  C   UNL     1      -0.436   9.152  25.385  0.00  0.00     0.210 C 
ENDBRANCH  24  29
BRANCH  25  31
HETATM   31  O   UNL     1       2.400  10.481  24.166  0.00  0.00    -0.353 OA
HETATM   32  C   UNL     1       3.456  11.288  23.649  0.00  0.00     0.210 C 
ENDBRANCH  25  31
ENDBRANCH  19  20
ENDBRANCH  15  19
ENDBRANCH   5   6
ENDBRANCH   4   5
ENDBRANCH   1   4
TORSDOF 9
ENDMDL
