REMARK  8 active torsions:
REMARK  status: ('A' for Active; 'I' for Inactive)
REMARK    1  A    between atoms: C_6  and  N_7 
REMARK    2  A    between atoms: C_13  and  C_14 
REMARK    3  A    between atoms: C_15  and  O_16 
REMARK    4  A    between atoms: C_18  and  O_19 
REMARK    5  A    between atoms: C_21  and  C_22 
REMARK       I    between atoms: C_22  and  N_24 
REMARK    6  A    between atoms: N_24  and  C_26 
REMARK    7  A    between atoms: C_26  and  C_27 
REMARK    8  A    between atoms: C_27  and  C_28 
ROOT
HETATM    1  C   UNL     1      -3.274   2.333  -0.438  0.00  0.00     0.046 C 
HETATM    2  C   UNL     1      -4.079   3.382   0.009  0.00  0.00     0.082 C 
HETATM    3  C   UNL     1      -3.630   4.694  -0.094  0.00  0.00     0.075 C 
HETATM    4  C   UNL     1      -2.372   4.963  -0.656  0.00  0.00     0.084 C 
HETATM    5  C   UNL     1      -2.078   2.637  -1.098  0.00  0.00     0.038 C 
HETATM    6  C   UNL     1      -1.556   3.930  -1.165  0.00  0.00     0.066 C 
ENDROOT
BRANCH   1   7
HETATM    7  C   UNL     1      -3.689   0.920  -0.248  0.00  0.00     0.171 A 
HETATM    8  N   UNL     1      -2.858  -0.173  -0.086  0.00  0.00    -0.244 N 
HETATM    9  C   UNL     1      -3.717  -1.259  -0.123  0.00  0.00     0.349 A 
HETATM   10  O   UNL     1      -3.490  -2.460  -0.079  0.00  0.00    -0.245 OA
HETATM   11  N   UNL     1      -4.997  -0.729  -0.219  0.00  0.00    -0.226 N 
HETATM   12  H   UNL     1      -5.847  -1.273  -0.301  0.00  0.00     0.194 HD
HETATM   13  N   UNL     1      -4.964   0.624  -0.304  0.00  0.00    -0.151 NA
BRANCH   8  14
HETATM   14  C   UNL     1      -1.442  -0.287   0.080  0.00  0.00     0.045 C 
HETATM   15  C   UNL     1      -0.661   0.749   0.615  0.00  0.00     0.030 C 
HETATM   16  C   UNL     1       0.738   0.723   0.549  0.00  0.00     0.002 C 
HETATM   17  C   UNL     1       1.391  -0.399   0.056  0.00  0.00     0.000 C 
HETATM   18  C   UNL     1       0.644  -1.498  -0.348  0.00  0.00     0.002 C 
HETATM   19  C   UNL     1      -0.757  -1.439  -0.340  0.00  0.00     0.030 C 
ENDBRANCH   8  14
ENDBRANCH   1   7
BRANCH   2  20
HETATM   20  O   UNL     1      -5.319   3.196   0.558  0.00  0.00    -0.360 OA
HETATM   21  H   UNL     1      -5.608   2.278   0.361  0.00  0.00     0.217 HD
ENDBRANCH   2  20
BRANCH   6  22
HETATM   22  C   UNL     1      -0.112   4.185  -1.525  0.00  0.00     0.256 C 
HETATM   23  O   UNL     1       0.456   5.077  -0.885  0.00  0.00    -0.267 OA
HETATM   24  N   UNL     1       0.629   3.450  -2.478  0.00  0.00    -0.352 N 
HETATM   25  C   UNL     1       0.228   2.318  -3.304  0.00  0.00     0.152 C 
BRANCH  24  26
HETATM   26  C   UNL     1       1.953   3.995  -2.823  0.00  0.00     0.125 C 
BRANCH  26  27
HETATM   27  C   UNL     1       3.060   3.459  -1.911  0.00  0.00     0.020 C 
BRANCH  27  28
HETATM   28  C   UNL     1       4.440   3.965  -2.338  0.00  0.00    -0.003 C 
HETATM   29  C   UNL     1       5.527   3.471  -1.394  0.00  0.00     0.005 C 
ENDBRANCH  27  28
ENDBRANCH  26  27
ENDBRANCH  24  26
ENDBRANCH   6  22
BRANCH   4  30
HETATM   30  O   UNL     1      -1.970   6.269  -0.723  0.00  0.00    -0.360 OA
HETATM   31  H   UNL     1      -2.602   6.840  -0.256  0.00  0.00     0.217 HD
ENDBRANCH   4  30
TORSDOF 8
