MODEL 1
REMARK VINA RESULT:    -9.093      0.000      0.000
REMARK INTER + INTRA:         -15.257
REMARK INTER:                 -11.778
REMARK INTRA:                  -3.480
REMARK UNBOUND:                -2.974
REMARK  7 active torsions:
REMARK  status: ('A' for Active; 'I' for Inactive)
REMARK    1  A    between atoms: C_7  and  N_8 
REMARK    2  A    between atoms: C_14  and  C_15 
REMARK    3  A    between atoms: C_16  and  O_17 
REMARK    4  A    between atoms: C_19  and  O_20 
REMARK    5  A    between atoms: C_22  and  C_23 
REMARK       I    between atoms: C_23  and  N_25 
REMARK    6  A    between atoms: N_25  and  C_27 
REMARK    7  A    between atoms: C_27  and  C_28 
ROOT
HETATM    1  C   UNL     1       4.163  11.683  22.322  0.00  0.00     0.046 A 
HETATM    2  C   UNL     1       4.066  10.295  22.581  0.00  0.00     0.082 A 
HETATM    3  C   UNL     1       4.825   9.365  21.883  0.00  0.00     0.075 A 
HETATM    4  C   UNL     1       5.729   9.800  20.923  0.00  0.00     0.084 A 
HETATM    5  C   UNL     1       5.047  12.110  21.302  0.00  0.00     0.038 A 
HETATM    6  C   UNL     1       5.880  11.174  20.629  0.00  0.00     0.066 A 
ENDROOT
BRANCH   1   7
HETATM    7  C   UNL     1       3.379  12.579  23.233  0.00  0.00     0.172 A 
HETATM    8  N   UNL     1       3.835  13.526  24.131  0.00  0.00    -0.244 N 
HETATM    9  C   UNL     1       2.693  14.047  24.732  0.00  0.00     0.349 A 
HETATM   10  O   UNL     1       2.580  14.833  25.656  0.00  0.00    -0.245 OA
HETATM   11  N   UNL     1       1.628  13.401  24.132  0.00  0.00    -0.226 N 
HETATM   12  H   UNL     1       0.671  13.447  24.461  0.00  0.00     0.194 HD
HETATM   13  N   UNL     1       2.066  12.493  23.226  0.00  0.00    -0.151 NA
BRANCH   8  14
HETATM   14  C   UNL     1       5.121  13.821  24.625  0.00  0.00     0.051 C 
HETATM   15  C   UNL     1       5.715  15.086  24.485  0.00  0.00    -0.035 C 
HETATM   16  C   UNL     1       5.292  16.056  23.411  0.00  0.00     0.050 C 
HETATM   17  C   UNL     1       6.891  15.375  25.194  0.00  0.00     0.009 C 
HETATM   18  C   UNL     1       7.623  14.351  25.791  0.00  0.00     0.001 C 
HETATM   19  C   UNL     1       7.154  13.046  25.731  0.00  0.00     0.002 C 
HETATM   20  C   UNL     1       5.889  12.791  25.198  0.00  0.00     0.031 C 
ENDBRANCH   8  14
ENDBRANCH   1   7
BRANCH   2  21
HETATM   21  O   UNL     1       3.272   9.741  23.556  0.00  0.00    -0.360 OA
HETATM   22  H   UNL     1       2.336   9.793  23.263  0.00  0.00     0.217 HD
ENDBRANCH   2  21
BRANCH   6  23
HETATM   23  C   UNL     1       7.166  11.593  19.976  0.00  0.00     0.256 C 
HETATM   24  O   UNL     1       7.217  11.392  18.755  0.00  0.00    -0.267 OA
HETATM   25  N   UNL     1       8.293  12.079  20.650  0.00  0.00    -0.348 N 
HETATM   26  C   UNL     1       9.509  12.244  19.852  0.00  0.00     0.153 C 
BRANCH  25  27
HETATM   27  C   UNL     1       8.382  12.507  22.048  0.00  0.00     0.164 C 
BRANCH  27  28
HETATM   28  C   UNL     1       8.944  13.902  22.281  0.00  0.00    -0.040 A 
HETATM   29  C   UNL     1      10.114  14.119  23.023  0.00  0.00     0.009 A 
HETATM   30  C   UNL     1      10.667  15.400  23.133  0.00  0.00     0.001 A 
HETATM   31  C   UNL     1      10.068  16.483  22.494  0.00  0.00     0.000 A 
HETATM   32  C   UNL     1       8.901  16.290  21.760  0.00  0.00     0.001 A 
HETATM   33  C   UNL     1       8.342  15.012  21.656  0.00  0.00     0.009 A 
ENDBRANCH  27  28
ENDBRANCH  25  27
ENDBRANCH   6  23
BRANCH   4  34
HETATM   34  O   UNL     1       6.483   8.843  20.298  0.00  0.00    -0.360 OA
HETATM   35  H   UNL     1       7.274   9.248  19.913  0.00  0.00     0.217 HD
ENDBRANCH   4  34
TORSDOF 7
ENDMDL
MODEL 2
REMARK VINA RESULT:    -8.802      3.294      6.292
REMARK INTER + INTRA:         -14.864
REMARK INTER:                 -10.794
REMARK INTRA:                  -4.070
REMARK UNBOUND:                -2.974
REMARK  7 active torsions:
REMARK  status: ('A' for Active; 'I' for Inactive)
REMARK    1  A    between atoms: C_7  and  N_8 
REMARK    2  A    between atoms: C_14  and  C_15 
REMARK    3  A    between atoms: C_16  and  O_17 
REMARK    4  A    between atoms: C_19  and  O_20 
REMARK    5  A    between atoms: C_22  and  C_23 
REMARK       I    between atoms: C_23  and  N_25 
REMARK    6  A    between atoms: N_25  and  C_27 
REMARK    7  A    between atoms: C_27  and  C_28 
ROOT
HETATM    1  C   UNL     1      10.530  12.339  23.444  0.00  0.00     0.046 A 
HETATM    2  C   UNL     1      10.849  12.651  24.788  0.00  0.00     0.082 A 
HETATM    3  C   UNL     1      11.233  13.929  25.172  0.00  0.00     0.075 A 
HETATM    4  C   UNL     1      11.279  14.944  24.226  0.00  0.00     0.084 A 
HETATM    5  C   UNL     1      10.636  13.369  22.479  0.00  0.00     0.038 A 
HETATM    6  C   UNL     1      10.960  14.698  22.872  0.00  0.00     0.066 A 
ENDROOT
BRANCH   1   7
HETATM    7  C   UNL     1      10.014  10.955  23.195  0.00  0.00     0.172 A 
HETATM    8  N   UNL     1       8.742  10.549  22.837  0.00  0.00    -0.244 N 
HETATM    9  C   UNL     1       8.804   9.160  22.761  0.00  0.00     0.349 A 
HETATM   10  O   UNL     1       7.919   8.342  22.580  0.00  0.00    -0.245 OA
HETATM   11  N   UNL     1      10.116   8.829  23.046  0.00  0.00    -0.226 N 
HETATM   12  H   UNL     1      10.443   7.887  23.223  0.00  0.00     0.194 HD
HETATM   13  N   UNL     1      10.841   9.939  23.324  0.00  0.00    -0.151 NA
BRANCH   8  14
HETATM   14  C   UNL     1       7.509  11.229  22.786  0.00  0.00     0.051 C 
HETATM   15  C   UNL     1       6.982  11.752  21.594  0.00  0.00    -0.035 C 
HETATM   16  C   UNL     1       7.851  12.079  20.407  0.00  0.00     0.050 C 
HETATM   17  C   UNL     1       5.656  12.213  21.574  0.00  0.00     0.009 C 
HETATM   18  C   UNL     1       4.967  12.426  22.765  0.00  0.00     0.001 C 
HETATM   19  C   UNL     1       5.577  12.127  23.975  0.00  0.00     0.002 C 
HETATM   20  C   UNL     1       6.817  11.486  23.983  0.00  0.00     0.031 C 
ENDBRANCH   8  14
ENDBRANCH   1   7
BRANCH   2  21
HETATM   21  O   UNL     1      10.766  11.761  25.832  0.00  0.00    -0.360 OA
HETATM   22  H   UNL     1      10.206  11.004  25.552  0.00  0.00     0.217 HD
ENDBRANCH   2  21
BRANCH   6  23
HETATM   23  C   UNL     1      10.561  15.883  22.040  0.00  0.00     0.256 C 
HETATM   24  O   UNL     1      11.486  16.659  21.766  0.00  0.00    -0.267 OA
HETATM   25  N   UNL     1       9.250  16.199  21.661  0.00  0.00    -0.348 N 
HETATM   26  C   UNL     1       9.053  17.500  21.019  0.00  0.00     0.153 C 
BRANCH  25  27
HETATM   27  C   UNL     1       8.060  15.352  21.769  0.00  0.00     0.164 C 
BRANCH  27  28
HETATM   28  C   UNL     1       7.263  15.489  23.058  0.00  0.00    -0.040 A 
HETATM   29  C   UNL     1       5.919  15.889  23.063  0.00  0.00     0.009 A 
HETATM   30  C   UNL     1       5.179  15.904  24.251  0.00  0.00     0.001 A 
HETATM   31  C   UNL     1       5.766  15.510  25.451  0.00  0.00     0.000 A 
HETATM   32  C   UNL     1       7.102  15.118  25.469  0.00  0.00     0.001 A 
HETATM   33  C   UNL     1       7.845  15.110  24.283  0.00  0.00     0.009 A 
ENDBRANCH  27  28
ENDBRANCH  25  27
ENDBRANCH   6  23
BRANCH   4  34
HETATM   34  O   UNL     1      11.620  16.194  24.669  0.00  0.00    -0.360 OA
HETATM   35  H   UNL     1      11.166  16.866  24.139  0.00  0.00     0.217 HD
ENDBRANCH   4  34
TORSDOF 7
ENDMDL
MODEL 3
REMARK VINA RESULT:    -8.653      2.274      5.615
REMARK INTER + INTRA:         -14.662
REMARK INTER:                 -10.779
REMARK INTRA:                  -3.883
REMARK UNBOUND:                -2.974
REMARK  7 active torsions:
REMARK  status: ('A' for Active; 'I' for Inactive)
REMARK    1  A    between atoms: C_7  and  N_8 
REMARK    2  A    between atoms: C_14  and  C_15 
REMARK    3  A    between atoms: C_16  and  O_17 
REMARK    4  A    between atoms: C_19  and  O_20 
REMARK    5  A    between atoms: C_22  and  C_23 
REMARK       I    between atoms: C_23  and  N_25 
REMARK    6  A    between atoms: N_25  and  C_27 
REMARK    7  A    between atoms: C_27  and  C_28 
ROOT
HETATM    1  C   UNL     1       7.771  11.142  21.413  0.00  0.00     0.046 A 
HETATM    2  C   UNL     1       7.119  11.030  20.161  0.00  0.00     0.082 A 
HETATM    3  C   UNL     1       6.004  10.220  19.985  0.00  0.00     0.075 A 
HETATM    4  C   UNL     1       5.490   9.519  21.068  0.00  0.00     0.084 A 
HETATM    5  C   UNL     1       7.271  10.378  22.495  0.00  0.00     0.038 A 
HETATM    6  C   UNL     1       6.089   9.600  22.344  0.00  0.00     0.066 A 
ENDROOT
BRANCH   1   7
HETATM    7  C   UNL     1       8.882  12.144  21.488  0.00  0.00     0.172 A 
HETATM    8  N   UNL     1       8.967  13.298  22.244  0.00  0.00    -0.244 N 
HETATM    9  C   UNL     1      10.195  13.866  21.917  0.00  0.00     0.349 A 
HETATM   10  O   UNL     1      10.679  14.936  22.244  0.00  0.00    -0.245 OA
HETATM   11  N   UNL     1      10.778  12.998  21.012  0.00  0.00    -0.226 N 
HETATM   12  H   UNL     1      11.607  13.210  20.470  0.00  0.00     0.194 HD
HETATM   13  N   UNL     1       9.955  11.955  20.748  0.00  0.00    -0.151 NA
BRANCH   8  14
HETATM   14  C   UNL     1       8.015  14.004  23.006  0.00  0.00     0.051 C 
HETATM   15  C   UNL     1       7.973  13.947  24.408  0.00  0.00    -0.035 C 
HETATM   16  C   UNL     1       8.569  12.800  25.183  0.00  0.00     0.050 C 
HETATM   17  C   UNL     1       7.152  14.845  25.108  0.00  0.00     0.009 C 
HETATM   18  C   UNL     1       6.178  15.579  24.436  0.00  0.00     0.001 C 
HETATM   19  C   UNL     1       6.058  15.461  23.057  0.00  0.00     0.002 C 
HETATM   20  C   UNL     1       7.001  14.720  22.343  0.00  0.00     0.031 C 
ENDBRANCH   8  14
ENDBRANCH   1   7
BRANCH   2  21
HETATM   21  O   UNL     1       7.477  11.730  19.034  0.00  0.00    -0.360 OA
HETATM   22  H   UNL     1       8.005  11.138  18.454  0.00  0.00     0.217 HD
ENDBRANCH   2  21
BRANCH   6  23
HETATM   23  C   UNL     1       5.232   9.236  23.523  0.00  0.00     0.256 C 
HETATM   24  O   UNL     1       4.933   8.037  23.596  0.00  0.00    -0.267 OA
HETATM   25  N   UNL     1       4.696  10.146  24.442  0.00  0.00    -0.348 N 
HETATM   26  C   UNL     1       3.728   9.610  25.402  0.00  0.00     0.153 C 
BRANCH  25  27
HETATM   27  C   UNL     1       5.038  11.561  24.603  0.00  0.00     0.164 C 
BRANCH  27  28
HETATM   28  C   UNL     1       3.996  12.556  24.114  0.00  0.00    -0.040 A 
HETATM   29  C   UNL     1       3.440  13.527  24.960  0.00  0.00     0.009 A 
HETATM   30  C   UNL     1       2.563  14.497  24.460  0.00  0.00     0.001 A 
HETATM   31  C   UNL     1       2.236  14.520  23.106  0.00  0.00     0.000 A 
HETATM   32  C   UNL     1       2.770  13.559  22.252  0.00  0.00     0.001 A 
HETATM   33  C   UNL     1       3.641  12.584  22.752  0.00  0.00     0.009 A 
ENDBRANCH  27  28
ENDBRANCH  25  27
ENDBRANCH   6  23
BRANCH   4  34
HETATM   34  O   UNL     1       4.364   8.772  20.847  0.00  0.00    -0.360 OA
HETATM   35  H   UNL     1       3.761   9.251  20.259  0.00  0.00     0.217 HD
ENDBRANCH   4  34
TORSDOF 7
ENDMDL
MODEL 4
REMARK VINA RESULT:    -8.357      3.107      5.797
REMARK INTER + INTRA:         -14.262
REMARK INTER:                 -11.102
REMARK INTRA:                  -3.160
REMARK UNBOUND:                -2.974
REMARK  7 active torsions:
REMARK  status: ('A' for Active; 'I' for Inactive)
REMARK    1  A    between atoms: C_7  and  N_8 
REMARK    2  A    between atoms: C_14  and  C_15 
REMARK    3  A    between atoms: C_16  and  O_17 
REMARK    4  A    between atoms: C_19  and  O_20 
REMARK    5  A    between atoms: C_22  and  C_23 
REMARK       I    between atoms: C_23  and  N_25 
REMARK    6  A    between atoms: N_25  and  C_27 
REMARK    7  A    between atoms: C_27  and  C_28 
ROOT
HETATM    1  C   UNL     1       9.264  11.747  24.484  0.00  0.00     0.046 A 
HETATM    2  C   UNL     1      10.013  11.373  23.342  0.00  0.00     0.082 A 
HETATM    3  C   UNL     1       9.587  10.366  22.485  0.00  0.00     0.075 A 
HETATM    4  C   UNL     1       8.381   9.724  22.729  0.00  0.00     0.084 A 
HETATM    5  C   UNL     1       8.065  11.046  24.753  0.00  0.00     0.038 A 
HETATM    6  C   UNL     1       7.584  10.062  23.845  0.00  0.00     0.066 A 
ENDROOT
BRANCH   1   7
HETATM    7  C   UNL     1       9.778  12.929  25.249  0.00  0.00     0.172 A 
HETATM    8  N   UNL     1       9.226  14.189  25.383  0.00  0.00    -0.244 N 
HETATM    9  C   UNL     1      10.121  14.903  26.175  0.00  0.00     0.349 A 
HETATM   10  O   UNL     1      10.127  16.081  26.488  0.00  0.00    -0.245 OA
HETATM   11  N   UNL     1      11.133  14.014  26.489  0.00  0.00    -0.226 N 
HETATM   12  H   UNL     1      12.009  14.276  26.923  0.00  0.00     0.194 HD
HETATM   13  N   UNL     1      10.916  12.813  25.902  0.00  0.00    -0.151 NA
BRANCH   8  14
HETATM   14  C   UNL     1       8.160  14.832  24.724  0.00  0.00     0.051 C 
HETATM   15  C   UNL     1       8.233  15.234  23.380  0.00  0.00    -0.035 C 
HETATM   16  C   UNL     1       9.548  15.476  22.684  0.00  0.00     0.050 C 
HETATM   17  C   UNL     1       7.066  15.659  22.726  0.00  0.00     0.009 C 
HETATM   18  C   UNL     1       5.919  15.960  23.457  0.00  0.00     0.001 C 
HETATM   19  C   UNL     1       5.916  15.784  24.834  0.00  0.00     0.002 C 
HETATM   20  C   UNL     1       7.009  15.177  25.455  0.00  0.00     0.031 C 
ENDBRANCH   8  14
ENDBRANCH   1   7
BRANCH   2  21
HETATM   21  O   UNL     1      11.179  11.981  22.944  0.00  0.00    -0.360 OA
HETATM   22  H   UNL     1      11.796  11.290  22.617  0.00  0.00     0.217 HD
ENDBRANCH   2  21
BRANCH   6  23
HETATM   23  C   UNL     1       6.127   9.701  23.775  0.00  0.00     0.256 C 
HETATM   24  O   UNL     1       5.858   8.555  24.157  0.00  0.00    -0.267 OA
HETATM   25  N   UNL     1       5.120  10.511  23.235  0.00  0.00    -0.348 N 
HETATM   26  C   UNL     1       3.800   9.895  23.084  0.00  0.00     0.153 C 
BRANCH  25  27
HETATM   27  C   UNL     1       5.213  11.925  22.865  0.00  0.00     0.164 C 
BRANCH  27  28
HETATM   28  C   UNL     1       4.090  12.819  23.370  0.00  0.00    -0.040 A 
HETATM   29  C   UNL     1       3.895  13.069  24.736  0.00  0.00     0.009 A 
HETATM   30  C   UNL     1       2.921  13.979  25.167  0.00  0.00     0.001 A 
HETATM   31  C   UNL     1       2.135  14.660  24.240  0.00  0.00     0.000 A 
HETATM   32  C   UNL     1       2.307  14.419  22.880  0.00  0.00     0.001 A 
HETATM   33  C   UNL     1       3.274  13.504  22.449  0.00  0.00     0.009 A 
ENDBRANCH  27  28
ENDBRANCH  25  27
ENDBRANCH   6  23
BRANCH   4  34
HETATM   34  O   UNL     1       7.989   8.771  21.827  0.00  0.00    -0.360 OA
HETATM   35  H   UNL     1       7.746   9.192  20.989  0.00  0.00     0.217 HD
ENDBRANCH   4  34
TORSDOF 7
ENDMDL
MODEL 5
REMARK VINA RESULT:    -8.324      2.512      5.389
REMARK INTER + INTRA:         -14.218
REMARK INTER:                 -10.892
REMARK INTRA:                  -3.326
REMARK UNBOUND:                -2.974
REMARK  7 active torsions:
REMARK  status: ('A' for Active; 'I' for Inactive)
REMARK    1  A    between atoms: C_7  and  N_8 
REMARK    2  A    between atoms: C_14  and  C_15 
REMARK    3  A    between atoms: C_16  and  O_17 
REMARK    4  A    between atoms: C_19  and  O_20 
REMARK    5  A    between atoms: C_22  and  C_23 
REMARK       I    between atoms: C_23  and  N_25 
REMARK    6  A    between atoms: N_25  and  C_27 
REMARK    7  A    between atoms: C_27  and  C_28 
ROOT
HETATM    1  C   UNL     1       7.673  10.614  23.893  0.00  0.00     0.046 A 
HETATM    2  C   UNL     1       7.857   9.603  22.919  0.00  0.00     0.082 A 
HETATM    3  C   UNL     1       6.788   8.888  22.395  0.00  0.00     0.075 A 
HETATM    4  C   UNL     1       5.497   9.184  22.809  0.00  0.00     0.084 A 
HETATM    5  C   UNL     1       6.356  10.868  24.349  0.00  0.00     0.038 A 
HETATM    6  C   UNL     1       5.248  10.190  23.769  0.00  0.00     0.066 A 
ENDROOT
BRANCH   1   7
HETATM    7  C   UNL     1       8.897  11.388  24.278  0.00  0.00     0.172 A 
HETATM    8  N   UNL     1       9.043  12.748  24.476  0.00  0.00    -0.244 N 
HETATM    9  C   UNL     1      10.386  12.934  24.791  0.00  0.00     0.349 A 
HETATM   10  O   UNL     1      11.021  13.961  24.952  0.00  0.00    -0.245 OA
HETATM   11  N   UNL     1      10.948  11.670  24.792  0.00  0.00    -0.226 N 
HETATM   12  H   UNL     1      11.943  11.487  24.833  0.00  0.00     0.194 HD
HETATM   13  N   UNL     1      10.025  10.735  24.461  0.00  0.00    -0.151 NA
BRANCH   8  14
HETATM   14  C   UNL     1       8.198  13.842  24.204  0.00  0.00     0.051 C 
HETATM   15  C   UNL     1       8.186  14.499  22.963  0.00  0.00    -0.035 C 
HETATM   16  C   UNL     1       9.358  14.449  22.017  0.00  0.00     0.050 C 
HETATM   17  C   UNL     1       7.169  15.426  22.687  0.00  0.00     0.009 C 
HETATM   18  C   UNL     1       6.359  15.909  23.712  0.00  0.00     0.001 C 
HETATM   19  C   UNL     1       6.524  15.428  25.003  0.00  0.00     0.002 C 
HETATM   20  C   UNL     1       7.401  14.367  25.237  0.00  0.00     0.031 C 
ENDBRANCH   8  14
ENDBRANCH   1   7
BRANCH   2  21
HETATM   21  O   UNL     1       9.070   9.269  22.368  0.00  0.00    -0.360 OA
HETATM   22  H   UNL     1       9.000   8.366  21.985  0.00  0.00     0.217 HD
ENDBRANCH   2  21
BRANCH   6  23
HETATM   23  C   UNL     1       3.865  10.777  23.798  0.00  0.00     0.256 C 
HETATM   24  O   UNL     1       3.050  10.148  24.486  0.00  0.00    -0.267 OA
HETATM   25  N   UNL     1       3.440  11.881  23.049  0.00  0.00    -0.348 N 
HETATM   26  C   UNL     1       2.006  12.171  23.072  0.00  0.00     0.153 C 
BRANCH  25  27
HETATM   27  C   UNL     1       4.272  12.823  22.296  0.00  0.00     0.164 C 
BRANCH  27  28
HETATM   28  C   UNL     1       5.037  12.239  21.118  0.00  0.00    -0.040 A 
HETATM   29  C   UNL     1       6.431  12.346  21.009  0.00  0.00     0.009 A 
HETATM   30  C   UNL     1       7.121  11.709  19.971  0.00  0.00     0.001 A 
HETATM   31  C   UNL     1       6.431  10.946  19.031  0.00  0.00     0.000 A 
HETATM   32  C   UNL     1       5.046  10.835  19.116  0.00  0.00     0.001 A 
HETATM   33  C   UNL     1       4.354  11.478  20.149  0.00  0.00     0.009 A 
ENDBRANCH  27  28
ENDBRANCH  25  27
ENDBRANCH   6  23
BRANCH   4  34
HETATM   34  O   UNL     1       4.479   8.478  22.227  0.00  0.00    -0.360 OA
HETATM   35  H   UNL     1       4.842   7.828  21.607  0.00  0.00     0.217 HD
ENDBRANCH   4  34
TORSDOF 7
ENDMDL
MODEL 6
REMARK VINA RESULT:    -8.183      2.249      5.553
REMARK INTER + INTRA:         -14.027
REMARK INTER:                 -10.227
REMARK INTRA:                  -3.800
REMARK UNBOUND:                -2.974
REMARK  7 active torsions:
REMARK  status: ('A' for Active; 'I' for Inactive)
REMARK    1  A    between atoms: C_7  and  N_8 
REMARK    2  A    between atoms: C_14  and  C_15 
REMARK    3  A    between atoms: C_16  and  O_17 
REMARK    4  A    between atoms: C_19  and  O_20 
REMARK    5  A    between atoms: C_22  and  C_23 
REMARK       I    between atoms: C_23  and  N_25 
REMARK    6  A    between atoms: N_25  and  C_27 
REMARK    7  A    between atoms: C_27  and  C_28 
ROOT
HETATM    1  C   UNL     1       8.005  11.233  22.261  0.00  0.00     0.046 A 
HETATM    2  C   UNL     1       7.595  11.487  20.930  0.00  0.00     0.082 A 
HETATM    3  C   UNL     1       6.459  10.899  20.389  0.00  0.00     0.075 A 
HETATM    4  C   UNL     1       5.681  10.061  21.176  0.00  0.00     0.084 A 
HETATM    5  C   UNL     1       7.235  10.332  23.035  0.00  0.00     0.038 A 
HETATM    6  C   UNL     1       6.032   9.779  22.515  0.00  0.00     0.066 A 
ENDROOT
BRANCH   1   7
HETATM    7  C   UNL     1       9.176  12.029  22.752  0.00  0.00     0.172 A 
HETATM    8  N   UNL     1       9.190  13.222  23.450  0.00  0.00    -0.244 N 
HETATM    9  C   UNL     1      10.535  13.531  23.630  0.00  0.00     0.349 A 
HETATM   10  O   UNL     1      11.058  14.527  24.096  0.00  0.00    -0.245 OA
HETATM   11  N   UNL     1      11.237  12.486  23.056  0.00  0.00    -0.226 N 
HETATM   12  H   UNL     1      12.236  12.493  22.887  0.00  0.00     0.194 HD
HETATM   13  N   UNL     1      10.390  11.581  22.510  0.00  0.00    -0.151 NA
BRANCH   8  14
HETATM   14  C   UNL     1       8.179  14.157  23.747  0.00  0.00     0.051 C 
HETATM   15  C   UNL     1       7.719  15.098  22.812  0.00  0.00    -0.035 C 
HETATM   16  C   UNL     1       8.551  15.530  21.631  0.00  0.00     0.050 C 
HETATM   17  C   UNL     1       6.563  15.842  23.098  0.00  0.00     0.009 C 
HETATM   18  C   UNL     1       6.047  15.871  24.391  0.00  0.00     0.001 C 
HETATM   19  C   UNL     1       6.647  15.115  25.388  0.00  0.00     0.002 C 
HETATM   20  C   UNL     1       7.672  14.226  25.058  0.00  0.00     0.031 C 
ENDBRANCH   8  14
ENDBRANCH   1   7
BRANCH   2  21
HETATM   21  O   UNL     1       8.229  12.356  20.075  0.00  0.00    -0.360 OA
HETATM   22  H   UNL     1       8.238  11.958  19.177  0.00  0.00     0.217 HD
ENDBRANCH   2  21
BRANCH   6  23
HETATM   23  C   UNL     1       4.934   9.293  23.419  0.00  0.00     0.256 C 
HETATM   24  O   UNL     1       4.498   8.167  23.146  0.00  0.00    -0.267 OA
HETATM   25  N   UNL     1       4.336  10.045  24.438  0.00  0.00    -0.348 N 
HETATM   26  C   UNL     1       3.154   9.459  25.072  0.00  0.00     0.153 C 
BRANCH  25  27
HETATM   27  C   UNL     1       4.794  11.320  24.993  0.00  0.00     0.164 C 
BRANCH  27  28
HETATM   28  C   UNL     1       4.116  12.566  24.442  0.00  0.00    -0.040 A 
HETATM   29  C   UNL     1       4.125  12.875  23.074  0.00  0.00     0.009 A 
HETATM   30  C   UNL     1       3.404  13.969  22.580  0.00  0.00     0.001 A 
HETATM   31  C   UNL     1       2.656  14.766  23.444  0.00  0.00     0.000 A 
HETATM   32  C   UNL     1       2.642  14.482  24.807  0.00  0.00     0.001 A 
HETATM   33  C   UNL     1       3.368  13.393  25.302  0.00  0.00     0.009 A 
ENDBRANCH  27  28
ENDBRANCH  25  27
ENDBRANCH   6  23
BRANCH   4  34
HETATM   34  O   UNL     1       4.549   9.545  20.605  0.00  0.00    -0.360 OA
HETATM   35  H   UNL     1       4.658   9.497  19.643  0.00  0.00     0.217 HD
ENDBRANCH   4  34
TORSDOF 7
ENDMDL
MODEL 7
REMARK VINA RESULT:    -8.122      1.997      3.870
REMARK INTER + INTRA:         -13.945
REMARK INTER:                 -11.257
REMARK INTRA:                  -2.688
REMARK UNBOUND:                -2.974
REMARK  7 active torsions:
REMARK  status: ('A' for Active; 'I' for Inactive)
REMARK    1  A    between atoms: C_7  and  N_8 
REMARK    2  A    between atoms: C_14  and  C_15 
REMARK    3  A    between atoms: C_16  and  O_17 
REMARK    4  A    between atoms: C_19  and  O_20 
REMARK    5  A    between atoms: C_22  and  C_23 
REMARK       I    between atoms: C_23  and  N_25 
REMARK    6  A    between atoms: N_25  and  C_27 
REMARK    7  A    between atoms: C_27  and  C_28 
ROOT
HETATM    1  C   UNL     1       5.583  10.951  22.177  0.00  0.00     0.046 A 
HETATM    2  C   UNL     1       5.496  10.901  20.764  0.00  0.00     0.082 A 
HETATM    3  C   UNL     1       6.536  11.330  19.951  0.00  0.00     0.075 A 
HETATM    4  C   UNL     1       7.710  11.795  20.528  0.00  0.00     0.084 A 
HETATM    5  C   UNL     1       6.763  11.480  22.753  0.00  0.00     0.038 A 
HETATM    6  C   UNL     1       7.862  11.857  21.931  0.00  0.00     0.066 A 
ENDROOT
BRANCH   1   7
HETATM    7  C   UNL     1       4.438  10.342  22.928  0.00  0.00     0.172 A 
HETATM    8  N   UNL     1       3.236  10.913  23.300  0.00  0.00    -0.244 N 
HETATM    9  C   UNL     1       2.553   9.919  23.996  0.00  0.00     0.349 A 
HETATM   10  O   UNL     1       1.499   9.968  24.605  0.00  0.00    -0.245 OA
HETATM   11  N   UNL     1       3.378   8.809  23.966  0.00  0.00    -0.226 N 
HETATM   12  H   UNL     1       3.232   7.973  24.519  0.00  0.00     0.194 HD
HETATM   13  N   UNL     1       4.536   9.089  23.321  0.00  0.00    -0.151 NA
BRANCH   8  14
HETATM   14  C   UNL     1       2.774  12.244  23.287  0.00  0.00     0.051 C 
HETATM   15  C   UNL     1       3.351  13.253  24.075  0.00  0.00    -0.035 C 
HETATM   16  C   UNL     1       4.137  12.946  25.324  0.00  0.00     0.050 C 
HETATM   17  C   UNL     1       2.994  14.591  23.846  0.00  0.00     0.009 C 
HETATM   18  C   UNL     1       1.883  14.900  23.065  0.00  0.00     0.001 C 
HETATM   19  C   UNL     1       1.159  13.878  22.465  0.00  0.00     0.002 C 
HETATM   20  C   UNL     1       1.631  12.567  22.534  0.00  0.00     0.031 C 
ENDBRANCH   8  14
ENDBRANCH   1   7
BRANCH   2  21
HETATM   21  O   UNL     1       4.425  10.391  20.071  0.00  0.00    -0.360 OA
HETATM   22  H   UNL     1       3.786  11.118  19.904  0.00  0.00     0.217 HD
ENDBRANCH   2  21
BRANCH   6  23
HETATM   23  C   UNL     1       9.266  11.891  22.464  0.00  0.00     0.256 C 
HETATM   24  O   UNL     1       9.778  10.779  22.647  0.00  0.00    -0.267 OA
HETATM   25  N   UNL     1       9.958  13.049  22.842  0.00  0.00    -0.348 N 
HETATM   26  C   UNL     1      11.240  12.850  23.519  0.00  0.00     0.153 C 
BRANCH  25  27
HETATM   27  C   UNL     1       9.582  14.440  22.579  0.00  0.00     0.164 C 
BRANCH  27  28
HETATM   28  C   UNL     1       8.385  14.963  23.360  0.00  0.00    -0.040 A 
HETATM   29  C   UNL     1       7.278  15.545  22.724  0.00  0.00     0.009 A 
HETATM   30  C   UNL     1       6.146  15.921  23.457  0.00  0.00     0.001 A 
HETATM   31  C   UNL     1       6.097  15.712  24.834  0.00  0.00     0.000 A 
HETATM   32  C   UNL     1       7.189  15.144  25.484  0.00  0.00     0.001 A 
HETATM   33  C   UNL     1       8.324  14.775  24.754  0.00  0.00     0.009 A 
ENDBRANCH  27  28
ENDBRANCH  25  27
ENDBRANCH   6  23
BRANCH   4  34
HETATM   34  O   UNL     1       8.719  12.162  19.679  0.00  0.00    -0.360 OA
HETATM   35  H   UNL     1       8.577  11.763  18.807  0.00  0.00     0.217 HD
ENDBRANCH   4  34
TORSDOF 7
ENDMDL
MODEL 8
REMARK VINA RESULT:    -8.103      1.184      2.201
REMARK INTER + INTRA:         -13.919
REMARK INTER:                 -10.555
REMARK INTRA:                  -3.364
REMARK UNBOUND:                -2.974
REMARK  7 active torsions:
REMARK  status: ('A' for Active; 'I' for Inactive)
REMARK    1  A    between atoms: C_7  and  N_8 
REMARK    2  A    between atoms: C_14  and  C_15 
REMARK    3  A    between atoms: C_16  and  O_17 
REMARK    4  A    between atoms: C_19  and  O_20 
REMARK    5  A    between atoms: C_22  and  C_23 
REMARK       I    between atoms: C_23  and  N_25 
REMARK    6  A    between atoms: N_25  and  C_27 
REMARK    7  A    between atoms: C_27  and  C_28 
ROOT
HETATM    1  C   UNL     1       3.994  11.473  22.146  0.00  0.00     0.046 A 
HETATM    2  C   UNL     1       4.127  10.141  22.609  0.00  0.00     0.082 A 
HETATM    3  C   UNL     1       5.047   9.261  22.054  0.00  0.00     0.075 A 
HETATM    4  C   UNL     1       5.885   9.697  21.037  0.00  0.00     0.084 A 
HETATM    5  C   UNL     1       4.816  11.888  21.070  0.00  0.00     0.038 A 
HETATM    6  C   UNL     1       5.809  11.017  20.541  0.00  0.00     0.066 A 
ENDROOT
BRANCH   1   7
HETATM    7  C   UNL     1       3.052  12.347  22.916  0.00  0.00     0.172 A 
HETATM    8  N   UNL     1       3.327  13.458  23.690  0.00  0.00    -0.244 N 
HETATM    9  C   UNL     1       2.098  13.871  24.196  0.00  0.00     0.349 A 
HETATM   10  O   UNL     1       1.834  14.741  25.006  0.00  0.00    -0.245 OA
HETATM   11  N   UNL     1       1.164  13.000  23.665  0.00  0.00    -0.226 N 
HETATM   12  H   UNL     1       0.200  12.942  23.967  0.00  0.00     0.194 HD
HETATM   13  N   UNL     1       1.767  12.062  22.895  0.00  0.00    -0.151 NA
BRANCH   8  14
HETATM   14  C   UNL     1       4.535  14.005  24.167  0.00  0.00     0.051 C 
HETATM   15  C   UNL     1       5.405  13.299  25.013  0.00  0.00    -0.035 C 
HETATM   16  C   UNL     1       4.936  12.150  25.869  0.00  0.00     0.050 C 
HETATM   17  C   UNL     1       6.687  13.812  25.264  0.00  0.00     0.009 C 
HETATM   18  C   UNL     1       6.996  15.129  24.929  0.00  0.00     0.001 C 
HETATM   19  C   UNL     1       6.046  15.917  24.293  0.00  0.00     0.002 C 
HETATM   20  C   UNL     1       4.846  15.345  23.870  0.00  0.00     0.031 C 
ENDBRANCH   8  14
ENDBRANCH   1   7
BRANCH   2  21
HETATM   21  O   UNL     1       3.417   9.611  23.659  0.00  0.00    -0.360 OA
HETATM   22  H   UNL     1       3.046   8.745  23.379  0.00  0.00     0.217 HD
ENDBRANCH   2  21
BRANCH   6  23
HETATM   23  C   UNL     1       7.020  11.548  19.827  0.00  0.00     0.256 C 
HETATM   24  O   UNL     1       7.187  11.099  18.686  0.00  0.00    -0.267 OA
HETATM   25  N   UNL     1       7.979  12.400  20.389  0.00  0.00    -0.348 N 
HETATM   26  C   UNL     1       9.183  12.641  19.592  0.00  0.00     0.153 C 
BRANCH  25  27
HETATM   27  C   UNL     1       7.891  13.134  21.654  0.00  0.00     0.164 C 
BRANCH  27  28
HETATM   28  C   UNL     1       8.699  12.564  22.810  0.00  0.00    -0.040 A 
HETATM   29  C   UNL     1       8.429  11.301  23.356  0.00  0.00     0.009 A 
HETATM   30  C   UNL     1       9.254  10.756  24.348  0.00  0.00     0.001 A 
HETATM   31  C   UNL     1      10.368  11.460  24.802  0.00  0.00     0.000 A 
HETATM   32  C   UNL     1      10.647  12.720  24.279  0.00  0.00     0.001 A 
HETATM   33  C   UNL     1       9.819  13.268  23.294  0.00  0.00     0.009 A 
ENDBRANCH  27  28
ENDBRANCH  25  27
ENDBRANCH   6  23
BRANCH   4  34
HETATM   34  O   UNL     1       6.802   8.800  20.559  0.00  0.00    -0.360 OA
HETATM   35  H   UNL     1       6.354   7.986  20.284  0.00  0.00     0.217 HD
ENDBRANCH   4  34
TORSDOF 7
ENDMDL
MODEL 9
REMARK VINA RESULT:    -7.881      2.896      5.829
REMARK INTER + INTRA:         -13.620
REMARK INTER:                 -10.646
REMARK INTRA:                  -2.974
REMARK UNBOUND:                -2.974
REMARK  7 active torsions:
REMARK  status: ('A' for Active; 'I' for Inactive)
REMARK    1  A    between atoms: C_7  and  N_8 
REMARK    2  A    between atoms: C_14  and  C_15 
REMARK    3  A    between atoms: C_16  and  O_17 
REMARK    4  A    between atoms: C_19  and  O_20 
REMARK    5  A    between atoms: C_22  and  C_23 
REMARK       I    between atoms: C_23  and  N_25 
REMARK    6  A    between atoms: N_25  and  C_27 
REMARK    7  A    between atoms: C_27  and  C_28 
ROOT
HETATM    1  C   UNL     1       9.073  12.029  23.090  0.00  0.00     0.046 A 
HETATM    2  C   UNL     1      10.078  11.377  23.845  0.00  0.00     0.082 A 
HETATM    3  C   UNL     1       9.950  10.053  24.245  0.00  0.00     0.075 A 
HETATM    4  C   UNL     1       8.824   9.331  23.874  0.00  0.00     0.084 A 
HETATM    5  C   UNL     1       7.904  11.298  22.766  0.00  0.00     0.038 A 
HETATM    6  C   UNL     1       7.794   9.922  23.110  0.00  0.00     0.066 A 
ENDROOT
BRANCH   1   7
HETATM    7  C   UNL     1       9.396  13.415  22.622  0.00  0.00     0.172 A 
HETATM    8  N   UNL     1       8.720  14.597  22.860  0.00  0.00    -0.244 N 
HETATM    9  C   UNL     1       9.433  15.576  22.175  0.00  0.00     0.349 A 
HETATM   10  O   UNL     1       9.179  16.754  21.997  0.00  0.00    -0.245 OA
HETATM   11  N   UNL     1      10.507  14.922  21.599  0.00  0.00    -0.226 N 
HETATM   12  H   UNL     1      11.123  15.333  20.909  0.00  0.00     0.194 HD
HETATM   13  N   UNL     1      10.462  13.595  21.870  0.00  0.00    -0.151 NA
BRANCH   8  14
HETATM   14  C   UNL     1       7.455  14.869  23.417  0.00  0.00     0.051 C 
HETATM   15  C   UNL     1       7.275  15.171  24.777  0.00  0.00    -0.035 C 
HETATM   16  C   UNL     1       8.273  14.761  25.829  0.00  0.00     0.050 C 
HETATM   17  C   UNL     1       6.031  15.651  25.215  0.00  0.00     0.009 C 
HETATM   18  C   UNL     1       4.911  15.555  24.393  0.00  0.00     0.001 C 
HETATM   19  C   UNL     1       5.039  15.033  23.113  0.00  0.00     0.002 C 
HETATM   20  C   UNL     1       6.309  14.741  22.612  0.00  0.00     0.031 C 
ENDBRANCH   8  14
ENDBRANCH   1   7
BRANCH   2  21
HETATM   21  O   UNL     1      11.271  11.952  24.208  0.00  0.00    -0.360 OA
HETATM   22  H   UNL     1      11.783  12.149  23.393  0.00  0.00     0.217 HD
ENDBRANCH   2  21
BRANCH   6  23
HETATM   23  C   UNL     1       6.888   8.992  22.353  0.00  0.00     0.256 C 
HETATM   24  O   UNL     1       7.452   8.308  21.490  0.00  0.00    -0.267 OA
HETATM   25  N   UNL     1       5.496   8.932  22.492  0.00  0.00    -0.348 N 
HETATM   26  C   UNL     1       4.780   8.100  21.524  0.00  0.00     0.153 C 
BRANCH  25  27
HETATM   27  C   UNL     1       4.674   9.551  23.534  0.00  0.00     0.164 C 
BRANCH  27  28
HETATM   28  C   UNL     1       3.874  10.775  23.111  0.00  0.00    -0.040 A 
HETATM   29  C   UNL     1       4.189  11.507  21.957  0.00  0.00     0.009 A 
HETATM   30  C   UNL     1       3.374  12.563  21.534  0.00  0.00     0.001 A 
HETATM   31  C   UNL     1       2.225  12.898  22.249  0.00  0.00     0.000 A 
HETATM   32  C   UNL     1       1.901  12.189  23.402  0.00  0.00     0.001 A 
HETATM   33  C   UNL     1       2.720  11.138  23.831  0.00  0.00     0.009 A 
ENDBRANCH  27  28
ENDBRANCH  25  27
ENDBRANCH   6  23
BRANCH   4  34
HETATM   34  O   UNL     1       8.773   8.018  24.258  0.00  0.00    -0.360 OA
HETATM   35  H   UNL     1       8.554   7.460  23.496  0.00  0.00     0.217 HD
ENDBRANCH   4  34
TORSDOF 7
ENDMDL
