MODEL 1
REMARK VINA RESULT:   -10.026      0.000      0.000
REMARK INTER + INTRA:         -14.298
REMARK INTER:                 -12.859
REMARK INTRA:                  -1.439
REMARK UNBOUND:                -0.755
REMARK  7 active torsions:
REMARK  status: ('A' for Active; 'I' for Inactive)
REMARK    1  A    between atoms: O_1  and  C_2 
REMARK    2  A    between atoms: C_2  and  N_4 
REMARK    3  A    between atoms: C_10  and  N_13 
REMARK       I    between atoms: N_13  and  C_15 
REMARK    4  A    between atoms: C_15  and  C_17 
REMARK    5  A    between atoms: C_19  and  O_20 
REMARK    6  A    between atoms: C_27  and  C_28 
REMARK    7  A    between atoms: C_28  and  C_29 
ROOT
HETATM    1  C   UNL     1       9.354  14.951  21.585  0.00  0.00     0.066 A 
HETATM    2  C   UNL     1       9.717  13.587  21.446  0.00  0.00     0.035 A 
HETATM    3  C   UNL     1      10.283  15.937  21.241  0.00  0.00     0.083 A 
HETATM    4  C   UNL     1      11.605  15.618  20.910  0.00  0.00     0.069 A 
HETATM    5  C   UNL     1      11.942  14.269  20.838  0.00  0.00     0.065 A 
HETATM    6  C   UNL     1      11.037  13.239  21.074  0.00  0.00     0.020 A 
HETATM    7  N   UNL     1      13.115  13.648  20.496  0.00  0.00    -0.277 N 
HETATM    8  H   UNL     1      13.990  14.087  20.241  0.00  0.00     0.189 HD
HETATM    9  N   UNL     1      13.042  12.311  20.459  0.00  0.00    -0.178 NA
HETATM   10  C   UNL     1      11.779  12.039  20.829  0.00  0.00     0.071 A 
ENDROOT
BRANCH   1  11
HETATM   11  C   UNL     1       7.943  15.223  21.990  0.00  0.00     0.260 C 
HETATM   12  N   UNL     1       7.351  14.625  23.135  0.00  0.00    -0.318 N 
HETATM   13  C   UNL     1       8.116  13.887  24.143  0.00  0.00     0.159 C 
HETATM   14  O   UNL     1       7.361  16.009  21.238  0.00  0.00    -0.267 OA
BRANCH  12  15
HETATM   15  C   UNL     1       5.915  14.705  23.358  0.00  0.00     0.039 A 
HETATM   16  C   UNL     1       5.131  13.542  23.412  0.00  0.00     0.059 A 
HETATM   17  C   UNL     1       3.762  13.603  23.651  0.00  0.00     0.040 A 
HETATM   18  N   UNL     1       2.843  12.535  23.637  0.00  0.00    -0.354 N 
HETATM   19  C   UNL     1       3.158  14.833  23.889  0.00  0.00    -0.030 A 
HETATM   20  C   UNL     1       1.626  13.093  24.249  0.00  0.00     0.130 C 
HETATM   21  C   UNL     1       1.702  14.631  24.137  0.00  0.00     0.060 C 
HETATM   22  C   UNL     1       3.881  16.012  23.857  0.00  0.00     0.012 A 
HETATM   23  C   UNL     1       5.260  15.940  23.583  0.00  0.00     0.030 A 
BRANCH  18  24
HETATM   24  C   UNL     1       3.328  11.204  23.948  0.00  0.00     0.216 C 
HETATM   25  C   UNL     1       3.867  11.050  25.360  0.00  0.00     0.063 C 
BRANCH  24  26
HETATM   26  O   UNL     1       2.210  10.344  23.860  0.00  0.00    -0.377 OA
HETATM   27  H   UNL     1       1.606  10.736  24.518  0.00  0.00     0.212 HD
ENDBRANCH  24  26
ENDBRANCH  18  24
ENDBRANCH  12  15
ENDBRANCH   1  11
BRANCH   3  28
HETATM   28  O   UNL     1       9.975  17.268  21.151  0.00  0.00    -0.360 OA
HETATM   29  H   UNL     1      10.811  17.774  21.174  0.00  0.00     0.217 HD
ENDBRANCH   3  28
BRANCH  10  30
HETATM   30  C   UNL     1      11.315  10.619  20.837  0.00  0.00     0.100 C 
BRANCH  30  31
HETATM   31  C   UNL     1      10.618  10.345  22.150  0.00  0.00    -0.052 A 
HETATM   32  C   UNL     1      11.305  10.540  23.356  0.00  0.00     0.007 A 
HETATM   33  C   UNL     1      10.637  10.439  24.578  0.00  0.00     0.001 A 
HETATM   34  C   UNL     1       9.286  10.102  24.612  0.00  0.00     0.007 A 
HETATM   35  C   UNL     1       8.593   9.831  23.428  0.00  0.00    -0.061 A 
HETATM   36  C   UNL     1       9.261   9.974  22.199  0.00  0.00     0.014 A 
HETATM   37  C   UNL     1       7.173   9.347  23.474  0.00  0.00     0.048 C 
ENDBRANCH  30  31
ENDBRANCH  10  30
TORSDOF 7
ENDMDL
MODEL 2
REMARK VINA RESULT:    -9.837      2.374      8.938
REMARK INTER + INTRA:         -14.043
REMARK INTER:                 -12.286
REMARK INTRA:                  -1.757
REMARK UNBOUND:                -0.755
REMARK  7 active torsions:
REMARK  status: ('A' for Active; 'I' for Inactive)
REMARK    1  A    between atoms: O_1  and  C_2 
REMARK    2  A    between atoms: C_2  and  N_4 
REMARK    3  A    between atoms: C_10  and  N_13 
REMARK       I    between atoms: N_13  and  C_15 
REMARK    4  A    between atoms: C_15  and  C_17 
REMARK    5  A    between atoms: C_19  and  O_20 
REMARK    6  A    between atoms: C_27  and  C_28 
REMARK    7  A    between atoms: C_28  and  C_29 
ROOT
HETATM    1  C   UNL     1       3.537  10.273  23.984  0.00  0.00     0.066 A 
HETATM    2  C   UNL     1       3.046  11.598  23.860  0.00  0.00     0.035 A 
HETATM    3  C   UNL     1       2.677   9.274  24.448  0.00  0.00     0.083 A 
HETATM    4  C   UNL     1       1.399   9.572  24.936  0.00  0.00     0.069 A 
HETATM    5  C   UNL     1       0.971  10.894  24.851  0.00  0.00     0.065 A 
HETATM    6  C   UNL     1       1.743  11.917  24.309  0.00  0.00     0.020 A 
HETATM    7  N   UNL     1      -0.221  11.481  25.188  0.00  0.00    -0.277 N 
HETATM    8  H   UNL     1      -1.032  11.033  25.595  0.00  0.00     0.189 HD
HETATM    9  N   UNL     1      -0.301  12.783  24.884  0.00  0.00    -0.178 NA
HETATM   10  C   UNL     1       0.902  13.075  24.361  0.00  0.00     0.071 A 
ENDROOT
BRANCH   1  11
HETATM   11  C   UNL     1       4.925  10.032  23.491  0.00  0.00     0.260 C 
HETATM   12  N   UNL     1       6.039  10.779  23.960  0.00  0.00    -0.318 N 
HETATM   13  C   UNL     1       5.976  11.677  25.116  0.00  0.00     0.159 C 
HETATM   14  O   UNL     1       4.997   9.129  22.653  0.00  0.00    -0.267 OA
BRANCH  12  15
HETATM   15  C   UNL     1       7.326  10.700  23.283  0.00  0.00     0.039 A 
HETATM   16  C   UNL     1       7.538  11.364  22.065  0.00  0.00     0.059 A 
HETATM   17  C   UNL     1       8.771  11.319  21.422  0.00  0.00     0.040 A 
HETATM   18  N   UNL     1       9.097  11.852  20.159  0.00  0.00    -0.354 N 
HETATM   19  C   UNL     1       9.833  10.644  22.015  0.00  0.00    -0.030 A 
HETATM   20  C   UNL     1      10.567  11.801  20.110  0.00  0.00     0.130 C 
HETATM   21  C   UNL     1      11.040  10.759  21.147  0.00  0.00     0.060 C 
HETATM   22  C   UNL     1       9.686   9.978  23.218  0.00  0.00     0.012 A 
HETATM   23  C   UNL     1       8.425  10.005  23.844  0.00  0.00     0.030 A 
BRANCH  18  24
HETATM   24  C   UNL     1       8.343  12.995  19.678  0.00  0.00     0.216 C 
HETATM   25  C   UNL     1       8.935  14.340  20.062  0.00  0.00     0.063 C 
BRANCH  24  26
HETATM   26  O   UNL     1       8.392  12.934  18.266  0.00  0.00    -0.377 OA
HETATM   27  H   UNL     1       9.309  13.213  18.088  0.00  0.00     0.212 HD
ENDBRANCH  24  26
ENDBRANCH  18  24
ENDBRANCH  12  15
ENDBRANCH   1  11
BRANCH   3  28
HETATM   28  O   UNL     1       2.983   7.939  24.421  0.00  0.00    -0.360 OA
HETATM   29  H   UNL     1       3.900   7.846  24.096  0.00  0.00     0.217 HD
ENDBRANCH   3  28
BRANCH  10  30
HETATM   30  C   UNL     1       1.153  14.453  23.841  0.00  0.00     0.100 C 
BRANCH  30  31
HETATM   31  C   UNL     1       2.494  14.926  24.356  0.00  0.00    -0.052 A 
HETATM   32  C   UNL     1       2.664  15.187  25.722  0.00  0.00     0.007 A 
HETATM   33  C   UNL     1       3.927  15.478  26.238  0.00  0.00     0.001 A 
HETATM   34  C   UNL     1       5.030  15.553  25.390  0.00  0.00     0.007 A 
HETATM   35  C   UNL     1       4.878  15.369  24.012  0.00  0.00    -0.061 A 
HETATM   36  C   UNL     1       3.610  15.037  23.504  0.00  0.00     0.014 A 
HETATM   37  C   UNL     1       6.042  15.574  23.087  0.00  0.00     0.048 C 
ENDBRANCH  30  31
ENDBRANCH  10  30
TORSDOF 7
ENDMDL
MODEL 3
REMARK VINA RESULT:    -9.426      2.096      8.734
REMARK INTER + INTRA:         -13.486
REMARK INTER:                 -11.810
REMARK INTRA:                  -1.676
REMARK UNBOUND:                -0.755
REMARK  7 active torsions:
REMARK  status: ('A' for Active; 'I' for Inactive)
REMARK    1  A    between atoms: O_1  and  C_2 
REMARK    2  A    between atoms: C_2  and  N_4 
REMARK    3  A    between atoms: C_10  and  N_13 
REMARK       I    between atoms: N_13  and  C_15 
REMARK    4  A    between atoms: C_15  and  C_17 
REMARK    5  A    between atoms: C_19  and  O_20 
REMARK    6  A    between atoms: C_27  and  C_28 
REMARK    7  A    between atoms: C_28  and  C_29 
ROOT
HETATM    1  C   UNL     1       5.677  10.171  23.394  0.00  0.00     0.066 A 
HETATM    2  C   UNL     1       4.710  11.205  23.294  0.00  0.00     0.035 A 
HETATM    3  C   UNL     1       5.308   8.953  23.970  0.00  0.00     0.083 A 
HETATM    4  C   UNL     1       4.063   8.778  24.586  0.00  0.00     0.069 A 
HETATM    5  C   UNL     1       3.158   9.835  24.518  0.00  0.00     0.065 A 
HETATM    6  C   UNL     1       3.431  11.037  23.874  0.00  0.00     0.020 A 
HETATM    7  N   UNL     1       1.869   9.950  24.969  0.00  0.00    -0.277 N 
HETATM    8  H   UNL     1       1.330   9.256  25.471  0.00  0.00     0.189 HD
HETATM    9  N   UNL     1       1.272  11.105  24.646  0.00  0.00    -0.178 NA
HETATM   10  C   UNL     1       2.220  11.794  23.990  0.00  0.00     0.071 A 
ENDROOT
BRANCH   1  11
HETATM   11  C   UNL     1       7.001  10.440  22.760  0.00  0.00     0.260 C 
HETATM   12  N   UNL     1       8.059  11.089  23.453  0.00  0.00    -0.318 N 
HETATM   13  C   UNL     1       8.040  11.339  24.897  0.00  0.00     0.159 C 
HETATM   14  O   UNL     1       7.075  10.044  21.594  0.00  0.00    -0.267 OA
BRANCH  12  15
HETATM   15  C   UNL     1       9.236  11.563  22.739  0.00  0.00     0.039 A 
HETATM   16  C   UNL     1       9.383  12.923  22.422  0.00  0.00     0.059 A 
HETATM   17  C   UNL     1      10.514  13.393  21.765  0.00  0.00     0.040 A 
HETATM   18  N   UNL     1      10.753  14.703  21.301  0.00  0.00    -0.354 N 
HETATM   19  C   UNL     1      11.547  12.514  21.454  0.00  0.00    -0.030 A 
HETATM   20  C   UNL     1      12.188  14.720  20.977  0.00  0.00     0.130 C 
HETATM   21  C   UNL     1      12.646  13.259  20.777  0.00  0.00     0.060 C 
HETATM   22  C   UNL     1      11.462  11.165  21.749  0.00  0.00     0.012 A 
HETATM   23  C   UNL     1      10.298  10.696  22.386  0.00  0.00     0.030 A 
BRANCH  18  24
HETATM   24  C   UNL     1      10.096  15.804  21.980  0.00  0.00     0.216 C 
HETATM   25  C   UNL     1      10.801  16.267  23.244  0.00  0.00     0.063 C 
BRANCH  24  26
HETATM   26  O   UNL     1      10.135  16.899  21.087  0.00  0.00    -0.377 OA
HETATM   27  H   UNL     1       9.965  16.463  20.232  0.00  0.00     0.212 HD
ENDBRANCH  24  26
ENDBRANCH  18  24
ENDBRANCH  12  15
ENDBRANCH   1  11
BRANCH   3  28
HETATM   28  O   UNL     1       6.095   7.833  23.940  0.00  0.00    -0.360 OA
HETATM   29  H   UNL     1       6.563   7.815  23.083  0.00  0.00     0.217 HD
ENDBRANCH   3  28
BRANCH  10  30
HETATM   30  C   UNL     1       1.880  13.131  23.416  0.00  0.00     0.100 C 
BRANCH  30  31
HETATM   31  C   UNL     1       2.707  14.184  24.119  0.00  0.00    -0.052 A 
HETATM   32  C   UNL     1       3.782  14.786  23.452  0.00  0.00     0.007 A 
HETATM   33  C   UNL     1       4.461  15.862  24.026  0.00  0.00     0.001 A 
HETATM   34  C   UNL     1       4.102  16.324  25.290  0.00  0.00     0.007 A 
HETATM   35  C   UNL     1       3.081  15.695  26.010  0.00  0.00    -0.061 A 
HETATM   36  C   UNL     1       2.374  14.638  25.411  0.00  0.00     0.014 A 
HETATM   37  C   UNL     1       2.781  16.112  27.420  0.00  0.00     0.048 C 
ENDBRANCH  30  31
ENDBRANCH  10  30
TORSDOF 7
ENDMDL
MODEL 4
REMARK VINA RESULT:    -9.401      1.754      2.159
REMARK INTER + INTRA:         -13.453
REMARK INTER:                 -12.819
REMARK INTRA:                  -0.634
REMARK UNBOUND:                -0.755
REMARK  7 active torsions:
REMARK  status: ('A' for Active; 'I' for Inactive)
REMARK    1  A    between atoms: O_1  and  C_2 
REMARK    2  A    between atoms: C_2  and  N_4 
REMARK    3  A    between atoms: C_10  and  N_13 
REMARK       I    between atoms: N_13  and  C_15 
REMARK    4  A    between atoms: C_15  and  C_17 
REMARK    5  A    between atoms: C_19  and  O_20 
REMARK    6  A    between atoms: C_27  and  C_28 
REMARK    7  A    between atoms: C_28  and  C_29 
ROOT
HETATM    1  C   UNL     1       8.885  12.513  21.041  0.00  0.00     0.066 A 
HETATM    2  C   UNL     1       9.672  11.940  22.072  0.00  0.00     0.035 A 
HETATM    3  C   UNL     1       9.387  12.532  19.737  0.00  0.00     0.083 A 
HETATM    4  C   UNL     1      10.701  12.143  19.450  0.00  0.00     0.069 A 
HETATM    5  C   UNL     1      11.466  11.638  20.499  0.00  0.00     0.065 A 
HETATM    6  C   UNL     1      10.989  11.503  21.799  0.00  0.00     0.020 A 
HETATM    7  N   UNL     1      12.740  11.136  20.527  0.00  0.00    -0.277 N 
HETATM    8  H   UNL     1      13.386  11.058  19.752  0.00  0.00     0.189 HD
HETATM    9  N   UNL     1      13.121  10.659  21.720  0.00  0.00    -0.178 NA
HETATM   10  C   UNL     1      12.066  10.892  22.519  0.00  0.00     0.071 A 
ENDROOT
BRANCH   1  11
HETATM   11  C   UNL     1       7.511  12.954  21.424  0.00  0.00     0.260 C 
HETATM   12  N   UNL     1       7.277  14.100  22.231  0.00  0.00    -0.318 N 
HETATM   13  C   UNL     1       8.319  15.075  22.564  0.00  0.00     0.159 C 
HETATM   14  O   UNL     1       6.620  12.231  20.970  0.00  0.00    -0.267 OA
BRANCH  12  15
HETATM   15  C   UNL     1       5.960  14.356  22.796  0.00  0.00     0.039 A 
HETATM   16  C   UNL     1       5.079  13.298  23.072  0.00  0.00     0.059 A 
HETATM   17  C   UNL     1       3.829  13.528  23.636  0.00  0.00     0.040 A 
HETATM   18  N   UNL     1       2.813  12.581  23.877  0.00  0.00    -0.354 N 
HETATM   19  C   UNL     1       3.454  14.822  23.981  0.00  0.00    -0.030 A 
HETATM   20  C   UNL     1       1.860  13.283  24.752  0.00  0.00     0.130 C 
HETATM   21  C   UNL     1       2.091  14.800  24.583  0.00  0.00     0.060 C 
HETATM   22  C   UNL     1       4.284  15.903  23.740  0.00  0.00     0.012 A 
HETATM   23  C   UNL     1       5.534  15.662  23.140  0.00  0.00     0.030 A 
BRANCH  18  24
HETATM   24  C   UNL     1       3.196  11.199  24.097  0.00  0.00     0.216 C 
HETATM   25  C   UNL     1       3.947  10.958  25.395  0.00  0.00     0.063 C 
BRANCH  24  26
HETATM   26  O   UNL     1       1.991  10.466  24.201  0.00  0.00    -0.377 OA
HETATM   27  H   UNL     1       2.161   9.721  23.596  0.00  0.00     0.212 HD
ENDBRANCH  24  26
ENDBRANCH  18  24
ENDBRANCH  12  15
ENDBRANCH   1  11
BRANCH   3  28
HETATM   28  O   UNL     1       8.640  12.879  18.643  0.00  0.00    -0.360 OA
HETATM   29  H   UNL     1       7.831  13.326  18.959  0.00  0.00     0.217 HD
ENDBRANCH   3  28
BRANCH  10  30
HETATM   30  C   UNL     1      12.112  10.422  23.937  0.00  0.00     0.100 C 
BRANCH  30  31
HETATM   31  C   UNL     1      10.726  10.535  24.529  0.00  0.00    -0.052 A 
HETATM   32  C   UNL     1      10.389  11.651  25.307  0.00  0.00     0.007 A 
HETATM   33  C   UNL     1       9.076  11.848  25.736  0.00  0.00     0.001 A 
HETATM   34  C   UNL     1       8.090  10.913  25.427  0.00  0.00     0.007 A 
HETATM   35  C   UNL     1       8.412   9.754  24.714  0.00  0.00    -0.061 A 
HETATM   36  C   UNL     1       9.728   9.581  24.251  0.00  0.00     0.014 A 
HETATM   37  C   UNL     1       7.378   8.690  24.491  0.00  0.00     0.048 C 
ENDBRANCH  30  31
ENDBRANCH  10  30
TORSDOF 7
ENDMDL
MODEL 5
REMARK VINA RESULT:    -9.387      2.459      3.644
REMARK INTER + INTRA:         -13.435
REMARK INTER:                 -12.167
REMARK INTRA:                  -1.268
REMARK UNBOUND:                -0.755
REMARK  7 active torsions:
REMARK  status: ('A' for Active; 'I' for Inactive)
REMARK    1  A    between atoms: O_1  and  C_2 
REMARK    2  A    between atoms: C_2  and  N_4 
REMARK    3  A    between atoms: C_10  and  N_13 
REMARK       I    between atoms: N_13  and  C_15 
REMARK    4  A    between atoms: C_15  and  C_17 
REMARK    5  A    between atoms: C_19  and  O_20 
REMARK    6  A    between atoms: C_27  and  C_28 
REMARK    7  A    between atoms: C_28  and  C_29 
ROOT
HETATM    1  C   UNL     1       8.568  12.606  21.571  0.00  0.00     0.066 A 
HETATM    2  C   UNL     1       9.790  13.122  22.074  0.00  0.00     0.035 A 
HETATM    3  C   UNL     1       8.593  11.792  20.436  0.00  0.00     0.083 A 
HETATM    4  C   UNL     1       9.766  11.597  19.697  0.00  0.00     0.069 A 
HETATM    5  C   UNL     1      10.938  12.165  20.190  0.00  0.00     0.065 A 
HETATM    6  C   UNL     1      10.995  12.906  21.366  0.00  0.00     0.020 A 
HETATM    7  N   UNL     1      12.228  12.112  19.733  0.00  0.00    -0.277 N 
HETATM    8  H   UNL     1      12.567  11.640  18.905  0.00  0.00     0.189 HD
HETATM    9  N   UNL     1      13.121  12.723  20.524  0.00  0.00    -0.178 NA
HETATM   10  C   UNL     1      12.381  13.233  21.523  0.00  0.00     0.071 A 
ENDROOT
BRANCH   1  11
HETATM   11  C   UNL     1       7.346  12.893  22.380  0.00  0.00     0.260 C 
HETATM   12  N   UNL     1       6.856  14.212  22.578  0.00  0.00    -0.318 N 
HETATM   13  C   UNL     1       7.349  15.373  21.833  0.00  0.00     0.159 C 
HETATM   14  O   UNL     1       6.818  11.879  22.844  0.00  0.00    -0.267 OA
BRANCH  12  15
HETATM   15  C   UNL     1       5.825  14.482  23.570  0.00  0.00     0.039 A 
HETATM   16  C   UNL     1       4.511  14.026  23.381  0.00  0.00     0.059 A 
HETATM   17  C   UNL     1       3.524  14.254  24.334  0.00  0.00     0.040 A 
HETATM   18  N   UNL     1       2.152  13.941  24.236  0.00  0.00    -0.354 N 
HETATM   19  C   UNL     1       3.846  14.903  25.521  0.00  0.00    -0.030 A 
HETATM   20  C   UNL     1       1.643  14.101  25.607  0.00  0.00     0.130 C 
HETATM   21  C   UNL     1       2.630  15.005  26.377  0.00  0.00     0.060 C 
HETATM   22  C   UNL     1       5.126  15.368  25.766  0.00  0.00     0.012 A 
HETATM   23  C   UNL     1       6.110  15.159  24.781  0.00  0.00     0.030 A 
BRANCH  18  24
HETATM   24  C   UNL     1       1.757  12.835  23.385  0.00  0.00     0.216 C 
HETATM   25  C   UNL     1       1.246  11.619  24.138  0.00  0.00     0.063 C 
BRANCH  24  26
HETATM   26  O   UNL     1       0.669  13.301  22.611  0.00  0.00    -0.377 OA
HETATM   27  H   UNL     1      -0.047  12.705  22.897  0.00  0.00     0.212 HD
ENDBRANCH  24  26
ENDBRANCH  18  24
ENDBRANCH  12  15
ENDBRANCH   1  11
BRANCH   3  28
HETATM   28  O   UNL     1       7.508  11.089  19.985  0.00  0.00    -0.360 OA
HETATM   29  H   UNL     1       7.787  10.570  19.205  0.00  0.00     0.217 HD
ENDBRANCH   3  28
BRANCH  10  30
HETATM   30  C   UNL     1      13.067  13.941  22.646  0.00  0.00     0.100 C 
BRANCH  30  31
HETATM   31  C   UNL     1      12.046  14.775  23.387  0.00  0.00    -0.052 A 
HETATM   32  C   UNL     1      11.555  15.952  22.807  0.00  0.00     0.007 A 
HETATM   33  C   UNL     1      10.506  16.653  23.403  0.00  0.00     0.001 A 
HETATM   34  C   UNL     1       9.962  16.212  24.607  0.00  0.00     0.007 A 
HETATM   35  C   UNL     1      10.481  15.081  25.245  0.00  0.00    -0.061 A 
HETATM   36  C   UNL     1      11.510  14.356  24.620  0.00  0.00     0.014 A 
HETATM   37  C   UNL     1       9.979  14.679  26.601  0.00  0.00     0.048 C 
ENDBRANCH  30  31
ENDBRANCH  10  30
TORSDOF 7
ENDMDL
MODEL 6
REMARK VINA RESULT:    -9.307      3.467      8.803
REMARK INTER + INTRA:         -13.326
REMARK INTER:                 -11.880
REMARK INTRA:                  -1.446
REMARK UNBOUND:                -0.755
REMARK  7 active torsions:
REMARK  status: ('A' for Active; 'I' for Inactive)
REMARK    1  A    between atoms: O_1  and  C_2 
REMARK    2  A    between atoms: C_2  and  N_4 
REMARK    3  A    between atoms: C_10  and  N_13 
REMARK       I    between atoms: N_13  and  C_15 
REMARK    4  A    between atoms: C_15  and  C_17 
REMARK    5  A    between atoms: C_19  and  O_20 
REMARK    6  A    between atoms: C_27  and  C_28 
REMARK    7  A    between atoms: C_28  and  C_29 
ROOT
HETATM    1  C   UNL     1       4.707  10.886  24.436  0.00  0.00     0.066 A 
HETATM    2  C   UNL     1       3.624  11.796  24.328  0.00  0.00     0.035 A 
HETATM    3  C   UNL     1       4.436   9.517  24.502  0.00  0.00     0.083 A 
HETATM    4  C   UNL     1       3.129   9.030  24.620  0.00  0.00     0.069 A 
HETATM    5  C   UNL     1       2.091   9.958  24.567  0.00  0.00     0.065 A 
HETATM    6  C   UNL     1       2.292  11.325  24.404  0.00  0.00     0.020 A 
HETATM    7  N   UNL     1       0.732   9.793  24.601  0.00  0.00    -0.277 N 
HETATM    8  H   UNL     1       0.220   8.925  24.693  0.00  0.00     0.189 HD
HETATM    9  N   UNL     1       0.034  10.926  24.442  0.00  0.00    -0.178 NA
HETATM   10  C   UNL     1       0.974  11.881  24.339  0.00  0.00     0.071 A 
ENDROOT
BRANCH   1  11
HETATM   11  C   UNL     1       6.077  11.475  24.354  0.00  0.00     0.260 C 
HETATM   12  N   UNL     1       6.549  12.435  25.289  0.00  0.00    -0.318 N 
HETATM   13  C   UNL     1       5.846  12.760  26.533  0.00  0.00     0.159 C 
HETATM   14  O   UNL     1       6.739  11.042  23.408  0.00  0.00    -0.267 OA
BRANCH  12  15
HETATM   15  C   UNL     1       7.778  13.174  25.039  0.00  0.00     0.039 A 
HETATM   16  C   UNL     1       8.975  12.813  25.679  0.00  0.00     0.059 A 
HETATM   17  C   UNL     1      10.161  13.494  25.429  0.00  0.00     0.040 A 
HETATM   18  N   UNL     1      11.406  13.306  26.064  0.00  0.00    -0.354 N 
HETATM   19  C   UNL     1      10.183  14.522  24.493  0.00  0.00    -0.030 A 
HETATM   20  C   UNL     1      12.361  14.042  25.221  0.00  0.00     0.130 C 
HETATM   21  C   UNL     1      11.565  15.073  24.392  0.00  0.00     0.060 C 
HETATM   22  C   UNL     1       9.037  14.917  23.825  0.00  0.00     0.012 A 
HETATM   23  C   UNL     1       7.835  14.241  24.110  0.00  0.00     0.030 A 
BRANCH  18  24
HETATM   24  C   UNL     1      11.706  11.999  26.619  0.00  0.00     0.216 C 
HETATM   25  C   UNL     1      13.119  11.514  26.346  0.00  0.00     0.063 C 
BRANCH  24  26
HETATM   26  O   UNL     1      11.603  12.132  28.022  0.00  0.00    -0.377 OA
HETATM   27  H   UNL     1      10.888  12.790  28.107  0.00  0.00     0.212 HD
ENDBRANCH  24  26
ENDBRANCH  18  24
ENDBRANCH  12  15
ENDBRANCH   1  11
BRANCH   3  28
HETATM   28  O   UNL     1       5.402   8.550  24.412  0.00  0.00    -0.360 OA
HETATM   29  H   UNL     1       5.285   7.935  25.163  0.00  0.00     0.217 HD
ENDBRANCH   3  28
BRANCH  10  30
HETATM   30  C   UNL     1       0.551  13.291  24.083  0.00  0.00     0.100 C 
BRANCH  30  31
HETATM   31  C   UNL     1       1.590  14.220  24.671  0.00  0.00    -0.052 A 
HETATM   32  C   UNL     1       1.608  14.461  26.051  0.00  0.00     0.007 A 
HETATM   33  C   UNL     1       2.645  15.192  26.630  0.00  0.00     0.001 A 
HETATM   34  C   UNL     1       3.656  15.728  25.835  0.00  0.00     0.007 A 
HETATM   35  C   UNL     1       3.624  15.565  24.446  0.00  0.00    -0.061 A 
HETATM   36  C   UNL     1       2.598  14.794  23.872  0.00  0.00     0.014 A 
HETATM   37  C   UNL     1       4.642  16.247  23.580  0.00  0.00     0.048 C 
ENDBRANCH  30  31
ENDBRANCH  10  30
TORSDOF 7
ENDMDL
MODEL 7
REMARK VINA RESULT:    -9.182      2.906      5.036
REMARK INTER + INTRA:         -13.158
REMARK INTER:                 -11.559
REMARK INTRA:                  -1.598
REMARK UNBOUND:                -0.755
REMARK  7 active torsions:
REMARK  status: ('A' for Active; 'I' for Inactive)
REMARK    1  A    between atoms: O_1  and  C_2 
REMARK    2  A    between atoms: C_2  and  N_4 
REMARK    3  A    between atoms: C_10  and  N_13 
REMARK       I    between atoms: N_13  and  C_15 
REMARK    4  A    between atoms: C_15  and  C_17 
REMARK    5  A    between atoms: C_19  and  O_20 
REMARK    6  A    between atoms: C_27  and  C_28 
REMARK    7  A    between atoms: C_28  and  C_29 
ROOT
HETATM    1  C   UNL     1       7.460  11.073  24.747  0.00  0.00     0.066 A 
HETATM    2  C   UNL     1       8.460  12.051  24.983  0.00  0.00     0.035 A 
HETATM    3  C   UNL     1       7.842   9.736  24.605  0.00  0.00     0.083 A 
HETATM    4  C   UNL     1       9.188   9.359  24.535  0.00  0.00     0.069 A 
HETATM    5  C   UNL     1      10.144  10.356  24.714  0.00  0.00     0.065 A 
HETATM    6  C   UNL     1       9.827  11.689  24.957  0.00  0.00     0.020 A 
HETATM    7  N   UNL     1      11.512  10.298  24.753  0.00  0.00    -0.277 N 
HETATM    8  H   UNL     1      12.096   9.479  24.634  0.00  0.00     0.189 HD
HETATM    9  N   UNL     1      12.108  11.465  25.031  0.00  0.00    -0.178 NA
HETATM   10  C   UNL     1      11.091  12.336  25.141  0.00  0.00     0.071 A 
ENDROOT
BRANCH   1  11
HETATM   11  C   UNL     1       6.045  11.549  24.784  0.00  0.00     0.260 C 
HETATM   12  N   UNL     1       5.307  11.833  23.604  0.00  0.00    -0.318 N 
HETATM   13  C   UNL     1       5.766  11.470  22.261  0.00  0.00     0.159 C 
HETATM   14  O   UNL     1       5.598  11.663  25.928  0.00  0.00    -0.267 OA
BRANCH  12  15
HETATM   15  C   UNL     1       4.032  12.532  23.674  0.00  0.00     0.039 A 
HETATM   16  C   UNL     1       2.833  11.823  23.850  0.00  0.00     0.059 A 
HETATM   17  C   UNL     1       1.612  12.482  23.946  0.00  0.00     0.040 A 
HETATM   18  N   UNL     1       0.330  11.899  24.026  0.00  0.00    -0.354 N 
HETATM   19  C   UNL     1       1.572  13.872  23.916  0.00  0.00    -0.030 A 
HETATM   20  C   UNL     1      -0.551  13.011  24.418  0.00  0.00     0.130 C 
HETATM   21  C   UNL     1       0.162  14.332  24.056  0.00  0.00     0.060 C 
HETATM   22  C   UNL     1       2.722  14.624  23.752  0.00  0.00     0.012 A 
HETATM   23  C   UNL     1       3.949  13.945  23.625  0.00  0.00     0.030 A 
BRANCH  18  24
HETATM   24  C   UNL     1       0.211  10.573  24.601  0.00  0.00     0.216 C 
HETATM   25  C   UNL     1      -0.735  10.490  25.787  0.00  0.00     0.063 C 
BRANCH  24  26
HETATM   26  O   UNL     1      -0.351   9.755  23.595  0.00  0.00    -0.377 OA
HETATM   27  H   UNL     1      -0.886  10.397  23.093  0.00  0.00     0.212 HD
ENDBRANCH  24  26
ENDBRANCH  18  24
ENDBRANCH  12  15
ENDBRANCH   1  11
BRANCH   3  28
HETATM   28  O   UNL     1       6.953   8.695  24.570  0.00  0.00    -0.360 OA
HETATM   29  H   UNL     1       6.343   8.793  25.327  0.00  0.00     0.217 HD
ENDBRANCH   3  28
BRANCH  10  30
HETATM   30  C   UNL     1      11.385  13.752  25.517  0.00  0.00     0.100 C 
BRANCH  30  31
HETATM   31  C   UNL     1      11.047  14.644  24.343  0.00  0.00    -0.052 A 
HETATM   32  C   UNL     1      10.308  15.816  24.549  0.00  0.00     0.007 A 
HETATM   33  C   UNL     1      10.116  16.726  23.509  0.00  0.00     0.001 A 
HETATM   34  C   UNL     1      10.624  16.458  22.239  0.00  0.00     0.007 A 
HETATM   35  C   UNL     1      11.302  15.262  21.987  0.00  0.00    -0.061 A 
HETATM   36  C   UNL     1      11.528  14.368  23.049  0.00  0.00     0.014 A 
HETATM   37  C   UNL     1      11.739  14.917  20.593  0.00  0.00     0.048 C 
ENDBRANCH  30  31
ENDBRANCH  10  30
TORSDOF 7
ENDMDL
MODEL 8
REMARK VINA RESULT:    -9.141      2.651      4.273
REMARK INTER + INTRA:         -13.102
REMARK INTER:                 -12.005
REMARK INTRA:                  -1.098
REMARK UNBOUND:                -0.755
REMARK  7 active torsions:
REMARK  status: ('A' for Active; 'I' for Inactive)
REMARK    1  A    between atoms: O_1  and  C_2 
REMARK    2  A    between atoms: C_2  and  N_4 
REMARK    3  A    between atoms: C_10  and  N_13 
REMARK       I    between atoms: N_13  and  C_15 
REMARK    4  A    between atoms: C_15  and  C_17 
REMARK    5  A    between atoms: C_19  and  O_20 
REMARK    6  A    between atoms: C_27  and  C_28 
REMARK    7  A    between atoms: C_28  and  C_29 
ROOT
HETATM    1  C   UNL     1       7.223  14.785  25.192  0.00  0.00     0.066 A 
HETATM    2  C   UNL     1       7.850  15.058  23.949  0.00  0.00     0.035 A 
HETATM    3  C   UNL     1       7.995  14.798  26.356  0.00  0.00     0.083 A 
HETATM    4  C   UNL     1       9.389  14.919  26.313  0.00  0.00     0.069 A 
HETATM    5  C   UNL     1       9.977  15.129  25.067  0.00  0.00     0.065 A 
HETATM    6  C   UNL     1       9.253  15.224  23.884  0.00  0.00     0.020 A 
HETATM    7  N   UNL     1      11.284  15.335  24.710  0.00  0.00    -0.277 N 
HETATM    8  H   UNL     1      12.092  15.352  25.318  0.00  0.00     0.189 HD
HETATM    9  N   UNL     1      11.467  15.586  23.406  0.00  0.00    -0.178 NA
HETATM   10  C   UNL     1      10.234  15.503  22.878  0.00  0.00     0.071 A 
ENDROOT
BRANCH   1  11
HETATM   11  C   UNL     1       5.740  14.616  25.163  0.00  0.00     0.260 C 
HETATM   12  N   UNL     1       5.113  13.509  24.529  0.00  0.00    -0.318 N 
HETATM   13  C   UNL     1       5.845  12.330  24.060  0.00  0.00     0.159 C 
HETATM   14  O   UNL     1       5.133  15.522  25.739  0.00  0.00    -0.267 OA
BRANCH  12  15
HETATM   15  C   UNL     1       3.676  13.502  24.295  0.00  0.00     0.039 A 
HETATM   16  C   UNL     1       2.937  12.313  24.406  0.00  0.00     0.059 A 
HETATM   17  C   UNL     1       1.560  12.298  24.212  0.00  0.00     0.040 A 
HETATM   18  N   UNL     1       0.710  11.173  24.197  0.00  0.00    -0.354 N 
HETATM   19  C   UNL     1       0.887  13.487  23.949  0.00  0.00    -0.030 A 
HETATM   20  C   UNL     1      -0.646  11.739  24.267  0.00  0.00     0.130 C 
HETATM   21  C   UNL     1      -0.571  13.210  23.802  0.00  0.00     0.060 C 
HETATM   22  C   UNL     1       1.561  14.690  23.836  0.00  0.00     0.012 A 
HETATM   23  C   UNL     1       2.959  14.688  24.004  0.00  0.00     0.030 A 
BRANCH  18  24
HETATM   24  C   UNL     1       1.104  10.002  24.958  0.00  0.00     0.216 C 
HETATM   25  C   UNL     1      -0.039   9.321  25.692  0.00  0.00     0.063 C 
BRANCH  24  26
HETATM   26  O   UNL     1       1.581   9.061  24.018  0.00  0.00    -0.377 OA
HETATM   27  H   UNL     1       0.757   8.791  23.572  0.00  0.00     0.212 HD
ENDBRANCH  24  26
ENDBRANCH  18  24
ENDBRANCH  12  15
ENDBRANCH   1  11
BRANCH   3  28
HETATM   28  O   UNL     1       7.464  14.742  27.617  0.00  0.00    -0.360 OA
HETATM   29  H   UNL     1       7.577  15.621  28.031  0.00  0.00     0.217 HD
ENDBRANCH   3  28
BRANCH  10  30
HETATM   30  C   UNL     1      10.046  15.796  21.425  0.00  0.00     0.100 C 
BRANCH  30  31
HETATM   31  C   UNL     1       9.665  14.514  20.720  0.00  0.00    -0.052 A 
HETATM   32  C   UNL     1       8.648  14.524  19.756  0.00  0.00     0.007 A 
HETATM   33  C   UNL     1       8.385  13.389  18.989  0.00  0.00     0.001 A 
HETATM   34  C   UNL     1       9.106  12.216  19.202  0.00  0.00     0.007 A 
HETATM   35  C   UNL     1      10.077  12.155  20.207  0.00  0.00    -0.061 A 
HETATM   36  C   UNL     1      10.365  13.313  20.949  0.00  0.00     0.014 A 
HETATM   37  C   UNL     1      10.763  10.857  20.519  0.00  0.00     0.048 C 
ENDBRANCH  30  31
ENDBRANCH  10  30
TORSDOF 7
ENDMDL
MODEL 9
REMARK VINA RESULT:    -9.094      2.566      8.884
REMARK INTER + INTRA:         -13.038
REMARK INTER:                 -12.283
REMARK INTRA:                  -0.755
REMARK UNBOUND:                -0.755
REMARK  7 active torsions:
REMARK  status: ('A' for Active; 'I' for Inactive)
REMARK    1  A    between atoms: O_1  and  C_2 
REMARK    2  A    between atoms: C_2  and  N_4 
REMARK    3  A    between atoms: C_10  and  N_13 
REMARK       I    between atoms: N_13  and  C_15 
REMARK    4  A    between atoms: C_15  and  C_17 
REMARK    5  A    between atoms: C_19  and  O_20 
REMARK    6  A    between atoms: C_27  and  C_28 
REMARK    7  A    between atoms: C_28  and  C_29 
ROOT
HETATM    1  C   UNL     1       5.452  14.557  23.684  0.00  0.00     0.066 A 
HETATM    2  C   UNL     1       4.181  14.165  23.192  0.00  0.00     0.035 A 
HETATM    3  C   UNL     1       5.561  14.993  25.007  0.00  0.00     0.083 A 
HETATM    4  C   UNL     1       4.432  15.198  25.809  0.00  0.00     0.069 A 
HETATM    5  C   UNL     1       3.193  14.855  25.274  0.00  0.00     0.065 A 
HETATM    6  C   UNL     1       3.029  14.325  23.998  0.00  0.00     0.020 A 
HETATM    7  N   UNL     1       1.935  14.889  25.816  0.00  0.00    -0.277 N 
HETATM    8  H   UNL     1       1.674  15.201  26.742  0.00  0.00     0.189 HD
HETATM    9  N   UNL     1       0.976  14.398  25.019  0.00  0.00    -0.178 NA
HETATM   10  C   UNL     1       1.625  14.064  23.890  0.00  0.00     0.071 A 
ENDROOT
BRANCH   1  11
HETATM   11  C   UNL     1       6.609  14.360  22.760  0.00  0.00     0.260 C 
HETATM   12  N   UNL     1       6.970  13.082  22.255  0.00  0.00    -0.318 N 
HETATM   13  C   UNL     1       6.125  11.894  22.395  0.00  0.00     0.159 C 
HETATM   14  O   UNL     1       7.201  15.407  22.489  0.00  0.00    -0.267 OA
BRANCH  12  15
HETATM   15  C   UNL     1       8.240  12.884  21.572  0.00  0.00     0.039 A 
HETATM   16  C   UNL     1       9.427  12.708  22.300  0.00  0.00     0.059 A 
HETATM   17  C   UNL     1      10.642  12.491  21.660  0.00  0.00     0.040 A 
HETATM   18  N   UNL     1      11.917  12.394  22.254  0.00  0.00    -0.354 N 
HETATM   19  C   UNL     1      10.685  12.398  20.273  0.00  0.00    -0.030 A 
HETATM   20  C   UNL     1      12.778  11.861  21.186  0.00  0.00     0.130 C 
HETATM   21  C   UNL     1      12.087  12.143  19.834  0.00  0.00     0.060 C 
HETATM   22  C   UNL     1       9.546  12.555  19.503  0.00  0.00     0.012 A 
HETATM   23  C   UNL     1       8.327  12.806  20.161  0.00  0.00     0.030 A 
BRANCH  18  24
HETATM   24  C   UNL     1      12.005  11.931  23.626  0.00  0.00     0.216 C 
HETATM   25  C   UNL     1      12.593  10.538  23.779  0.00  0.00     0.063 C 
BRANCH  24  26
HETATM   26  O   UNL     1      12.899  12.807  24.283  0.00  0.00    -0.377 OA
HETATM   27  H   UNL     1      13.366  12.198  24.884  0.00  0.00     0.212 HD
ENDBRANCH  24  26
ENDBRANCH  18  24
ENDBRANCH  12  15
ENDBRANCH   1  11
BRANCH   3  28
HETATM   28  O   UNL     1       6.758  15.207  25.637  0.00  0.00    -0.360 OA
HETATM   29  H   UNL     1       7.006  14.384  26.103  0.00  0.00     0.217 HD
ENDBRANCH   3  28
BRANCH  10  30
HETATM   30  C   UNL     1       0.864  13.412  22.782  0.00  0.00     0.100 C 
BRANCH  30  31
HETATM   31  C   UNL     1      -0.204  12.527  23.384  0.00  0.00    -0.052 A 
HETATM   32  C   UNL     1      -1.550  12.736  23.053  0.00  0.00     0.007 A 
HETATM   33  C   UNL     1      -2.533  11.841  23.477  0.00  0.00     0.001 A 
HETATM   34  C   UNL     1      -2.191  10.749  24.272  0.00  0.00     0.007 A 
HETATM   35  C   UNL     1      -0.867  10.557  24.679  0.00  0.00    -0.061 A 
HETATM   36  C   UNL     1       0.125  11.439  24.215  0.00  0.00     0.014 A 
HETATM   37  C   UNL     1      -0.521   9.454  25.636  0.00  0.00     0.048 C 
ENDBRANCH  30  31
ENDBRANCH  10  30
TORSDOF 7
ENDMDL
