MODEL 1
REMARK VINA RESULT:    -9.459      0.000      0.000
REMARK INTER + INTRA:         -14.111
REMARK INTER:                 -12.880
REMARK INTRA:                  -1.231
REMARK UNBOUND:                -1.335
REMARK  7 active torsions:
REMARK  status: ('A' for Active; 'I' for Inactive)
REMARK    1  A    between atoms: O_1  and  C_2 
REMARK    2  A    between atoms: C_2  and  N_4 
REMARK    3  A    between atoms: C_10  and  N_13 
REMARK       I    between atoms: N_13  and  C_15 
REMARK    4  A    between atoms: C_15  and  C_17 
REMARK    5  A    between atoms: C_19  and  O_20 
REMARK    6  A    between atoms: C_27  and  C_28 
REMARK    7  A    between atoms: C_28  and  C_29 
ROOT
HETATM    1  C   UNL     1       1.681   8.249  26.396  0.00  0.00     0.066 A 
HETATM    2  C   UNL     1       0.553   8.877  25.806  0.00  0.00     0.035 A 
HETATM    3  C   UNL     1       1.793   8.230  27.788  0.00  0.00     0.083 A 
HETATM    4  C   UNL     1       0.908   8.942  28.607  0.00  0.00     0.069 A 
HETATM    5  C   UNL     1      -0.156   9.594  27.989  0.00  0.00     0.065 A 
HETATM    6  C   UNL     1      -0.377   9.569  26.616  0.00  0.00     0.020 A 
HETATM    7  N   UNL     1      -1.198  10.315  28.510  0.00  0.00    -0.277 N 
HETATM    8  H   UNL     1      -1.373  10.524  29.484  0.00  0.00     0.189 HD
HETATM    9  N   UNL     1      -2.091  10.732  27.602  0.00  0.00    -0.178 NA
HETATM   10  C   UNL     1      -1.595  10.300  26.430  0.00  0.00     0.071 A 
ENDROOT
BRANCH   1  11
HETATM   11  C   UNL     1       2.613   7.550  25.462  0.00  0.00     0.260 C 
HETATM   12  N   UNL     1       3.295   8.230  24.417  0.00  0.00    -0.318 N 
HETATM   13  C   UNL     1       3.336   9.690  24.300  0.00  0.00     0.159 C 
HETATM   14  O   UNL     1       2.726   6.344  25.696  0.00  0.00    -0.267 OA
BRANCH  12  15
HETATM   15  C   UNL     1       3.989   7.487  23.375  0.00  0.00     0.039 A 
HETATM   16  C   UNL     1       3.419   7.334  22.102  0.00  0.00     0.059 A 
HETATM   17  C   UNL     1       4.084   6.650  21.090  0.00  0.00     0.040 A 
HETATM   18  N   UNL     1       3.596   6.338  19.805  0.00  0.00    -0.354 N 
HETATM   19  C   UNL     1       5.360   6.146  21.321  0.00  0.00    -0.030 A 
HETATM   20  C   UNL     1       4.787   5.901  19.059  0.00  0.00     0.130 C 
HETATM   21  C   UNL     1       5.861   5.480  20.085  0.00  0.00     0.060 C 
HETATM   22  C   UNL     1       5.976   6.274  22.553  0.00  0.00     0.012 A 
HETATM   23  C   UNL     1       5.280   6.941  23.579  0.00  0.00     0.030 A 
BRANCH  18  24
HETATM   24  C   UNL     1       2.588   7.203  19.221  0.00  0.00     0.216 C 
HETATM   25  C   UNL     1       2.913   7.682  17.817  0.00  0.00     0.063 C 
BRANCH  24  26
HETATM   26  O   UNL     1       1.416   6.422  19.107  0.00  0.00    -0.377 OA
HETATM   27  H   UNL     1       1.413   6.208  18.156  0.00  0.00     0.212 HD
ENDBRANCH  24  26
ENDBRANCH  18  24
ENDBRANCH  12  15
ENDBRANCH   1  11
BRANCH   3  28
HETATM   28  O   UNL     1       2.728   7.491  28.462  0.00  0.00    -0.360 OA
HETATM   29  H   UNL     1       2.453   6.553  28.429  0.00  0.00     0.217 HD
ENDBRANCH   3  28
BRANCH  10  30
HETATM   30  C   UNL     1      -2.379  10.534  25.180  0.00  0.00     0.100 C 
BRANCH  30  31
HETATM   31  C   UNL     1      -1.689  11.610  24.372  0.00  0.00    -0.052 A 
HETATM   32  C   UNL     1      -0.688  12.391  24.963  0.00  0.00     0.007 A 
HETATM   33  C   UNL     1       0.063  13.283  24.196  0.00  0.00     0.001 A 
HETATM   34  C   UNL     1      -0.205  13.437  22.837  0.00  0.00     0.007 A 
HETATM   35  C   UNL     1      -1.247  12.725  22.236  0.00  0.00    -0.061 A 
HETATM   36  C   UNL     1      -1.973  11.798  23.005  0.00  0.00     0.014 A 
HETATM   37  C   UNL     1      -1.615  12.984  20.805  0.00  0.00     0.048 C 
ENDBRANCH  30  31
ENDBRANCH  10  30
TORSDOF 7
ENDMDL
MODEL 2
REMARK VINA RESULT:    -9.108      1.179      1.972
REMARK INTER + INTRA:         -13.638
REMARK INTER:                 -12.068
REMARK INTRA:                  -1.569
REMARK UNBOUND:                -1.335
REMARK  7 active torsions:
REMARK  status: ('A' for Active; 'I' for Inactive)
REMARK    1  A    between atoms: O_1  and  C_2 
REMARK    2  A    between atoms: C_2  and  N_4 
REMARK    3  A    between atoms: C_10  and  N_13 
REMARK       I    between atoms: N_13  and  C_15 
REMARK    4  A    between atoms: C_15  and  C_17 
REMARK    5  A    between atoms: C_19  and  O_20 
REMARK    6  A    between atoms: C_27  and  C_28 
REMARK    7  A    between atoms: C_28  and  C_29 
ROOT
HETATM    1  C   UNL     1       2.245   7.575  25.210  0.00  0.00     0.066 A 
HETATM    2  C   UNL     1       1.065   8.338  25.015  0.00  0.00     0.035 A 
HETATM    3  C   UNL     1       2.708   7.366  26.512  0.00  0.00     0.083 A 
HETATM    4  C   UNL     1       2.130   8.011  27.611  0.00  0.00     0.069 A 
HETATM    5  C   UNL     1       1.005   8.799  27.375  0.00  0.00     0.065 A 
HETATM    6  C   UNL     1       0.438   8.968  26.116  0.00  0.00     0.020 A 
HETATM    7  N   UNL     1       0.200   9.502  28.232  0.00  0.00    -0.277 N 
HETATM    8  H   UNL     1       0.300   9.590  29.235  0.00  0.00     0.189 HD
HETATM    9  N   UNL     1      -0.855  10.085  27.646  0.00  0.00    -0.178 NA
HETATM   10  C   UNL     1      -0.716   9.785  26.344  0.00  0.00     0.071 A 
ENDROOT
BRANCH   1  11
HETATM   11  C   UNL     1       2.841   6.955  23.990  0.00  0.00     0.260 C 
HETATM   12  N   UNL     1       3.616   7.698  23.059  0.00  0.00    -0.318 N 
HETATM   13  C   UNL     1       4.096   9.058  23.317  0.00  0.00     0.159 C 
HETATM   14  O   UNL     1       2.594   5.751  23.883  0.00  0.00    -0.267 OA
BRANCH  12  15
HETATM   15  C   UNL     1       3.964   7.134  21.763  0.00  0.00     0.039 A 
HETATM   16  C   UNL     1       3.059   7.187  20.691  0.00  0.00     0.059 A 
HETATM   17  C   UNL     1       3.391   6.676  19.441  0.00  0.00     0.040 A 
HETATM   18  N   UNL     1       2.555   6.575  18.309  0.00  0.00    -0.354 N 
HETATM   19  C   UNL     1       4.658   6.145  19.225  0.00  0.00    -0.030 A 
HETATM   20  C   UNL     1       3.475   6.267  17.203  0.00  0.00     0.130 C 
HETATM   21  C   UNL     1       4.771   5.688  17.811  0.00  0.00     0.060 C 
HETATM   22  C   UNL     1       5.594   6.073  20.242  0.00  0.00     0.012 A 
HETATM   23  C   UNL     1       5.236   6.565  21.512  0.00  0.00     0.030 A 
BRANCH  18  24
HETATM   24  C   UNL     1       1.464   7.521  18.172  0.00  0.00     0.216 C 
HETATM   25  C   UNL     1       1.893   8.911  17.735  0.00  0.00     0.063 C 
BRANCH  24  26
HETATM   26  O   UNL     1       0.638   7.024  17.137  0.00  0.00    -0.377 OA
HETATM   27  H   UNL     1      -0.124   7.630  17.184  0.00  0.00     0.212 HD
ENDBRANCH  24  26
ENDBRANCH  18  24
ENDBRANCH  12  15
ENDBRANCH   1  11
BRANCH   3  28
HETATM   28  O   UNL     1       3.715   6.492  26.825  0.00  0.00    -0.360 OA
HETATM   29  H   UNL     1       3.356   5.828  27.447  0.00  0.00     0.217 HD
ENDBRANCH   3  28
BRANCH  10  30
HETATM   30  C   UNL     1      -1.770  10.226  25.381  0.00  0.00     0.100 C 
BRANCH  30  31
HETATM   31  C   UNL     1      -1.201  11.326  24.513  0.00  0.00    -0.052 A 
HETATM   32  C   UNL     1      -1.697  11.517  23.217  0.00  0.00     0.007 A 
HETATM   33  C   UNL     1      -1.294  12.616  22.457  0.00  0.00     0.001 A 
HETATM   34  C   UNL     1      -0.360  13.516  22.966  0.00  0.00     0.007 A 
HETATM   35  C   UNL     1       0.206  13.310  24.228  0.00  0.00    -0.061 A 
HETATM   36  C   UNL     1      -0.233  12.224  25.005  0.00  0.00     0.014 A 
HETATM   37  C   UNL     1       1.302  14.208  24.723  0.00  0.00     0.048 C 
ENDBRANCH  30  31
ENDBRANCH  10  30
TORSDOF 7
ENDMDL
MODEL 3
REMARK VINA RESULT:    -8.804      1.558      2.349
REMARK INTER + INTRA:         -13.226
REMARK INTER:                 -12.696
REMARK INTRA:                  -0.531
REMARK UNBOUND:                -1.335
REMARK  7 active torsions:
REMARK  status: ('A' for Active; 'I' for Inactive)
REMARK    1  A    between atoms: O_1  and  C_2 
REMARK    2  A    between atoms: C_2  and  N_4 
REMARK    3  A    between atoms: C_10  and  N_13 
REMARK       I    between atoms: N_13  and  C_15 
REMARK    4  A    between atoms: C_15  and  C_17 
REMARK    5  A    between atoms: C_19  and  O_20 
REMARK    6  A    between atoms: C_27  and  C_28 
REMARK    7  A    between atoms: C_28  and  C_29 
ROOT
HETATM    1  C   UNL     1       1.712   8.610  26.196  0.00  0.00     0.066 A 
HETATM    2  C   UNL     1       0.514   9.239  25.768  0.00  0.00     0.035 A 
HETATM    3  C   UNL     1       1.904   8.378  27.560  0.00  0.00     0.083 A 
HETATM    4  C   UNL     1       1.022   8.882  28.523  0.00  0.00     0.069 A 
HETATM    5  C   UNL     1      -0.116   9.544  28.069  0.00  0.00     0.065 A 
HETATM    6  C   UNL     1      -0.413   9.722  26.722  0.00  0.00     0.020 A 
HETATM    7  N   UNL     1      -1.172  10.093  28.747  0.00  0.00    -0.277 N 
HETATM    8  H   UNL     1      -1.305  10.130  29.750  0.00  0.00     0.189 HD
HETATM    9  N   UNL     1      -2.140  10.582  27.961  0.00  0.00    -0.178 NA
HETATM   10  C   UNL     1      -1.684  10.381  26.713  0.00  0.00     0.071 A 
ENDROOT
BRANCH   1  11
HETATM   11  C   UNL     1       2.634   8.141  25.120  0.00  0.00     0.260 C 
HETATM   12  N   UNL     1       3.263   9.035  24.212  0.00  0.00    -0.318 N 
HETATM   13  C   UNL     1       3.258  10.490  24.385  0.00  0.00     0.159 C 
HETATM   14  O   UNL     1       2.788   6.917  25.108  0.00  0.00    -0.267 OA
BRANCH  12  15
HETATM   15  C   UNL     1       3.945   8.536  23.027  0.00  0.00     0.039 A 
HETATM   16  C   UNL     1       4.249   7.172  22.896  0.00  0.00     0.059 A 
HETATM   17  C   UNL     1       4.876   6.678  21.757  0.00  0.00     0.040 A 
HETATM   18  N   UNL     1       5.325   5.360  21.531  0.00  0.00    -0.354 N 
HETATM   19  C   UNL     1       5.168   7.536  20.702  0.00  0.00    -0.030 A 
HETATM   20  C   UNL     1       5.614   5.317  20.089  0.00  0.00     0.130 C 
HETATM   21  C   UNL     1       5.813   6.767  19.600  0.00  0.00     0.060 C 
HETATM   22  C   UNL     1       4.885   8.889  20.772  0.00  0.00     0.012 A 
HETATM   23  C   UNL     1       4.278   9.383  21.942  0.00  0.00     0.030 A 
BRANCH  18  24
HETATM   24  C   UNL     1       4.654   4.276  22.222  0.00  0.00     0.216 C 
HETATM   25  C   UNL     1       4.463   3.024  21.383  0.00  0.00     0.063 C 
BRANCH  24  26
HETATM   26  O   UNL     1       5.501   3.905  23.291  0.00  0.00    -0.377 OA
HETATM   27  H   UNL     1       6.100   4.672  23.344  0.00  0.00     0.212 HD
ENDBRANCH  24  26
ENDBRANCH  18  24
ENDBRANCH  12  15
ENDBRANCH   1  11
BRANCH   3  28
HETATM   28  O   UNL     1       2.922   7.611  28.061  0.00  0.00    -0.360 OA
HETATM   29  H   UNL     1       3.343   7.143  27.314  0.00  0.00     0.217 HD
ENDBRANCH   3  28
BRANCH  10  30
HETATM   30  C   UNL     1      -2.551  10.753  25.554  0.00  0.00     0.100 C 
BRANCH  30  31
HETATM   31  C   UNL     1      -1.738  11.588  24.591  0.00  0.00    -0.052 A 
HETATM   32  C   UNL     1      -2.070  11.602  23.230  0.00  0.00     0.007 A 
HETATM   33  C   UNL     1      -1.430  12.478  22.352  0.00  0.00     0.001 A 
HETATM   34  C   UNL     1      -0.422  13.322  22.813  0.00  0.00     0.007 A 
HETATM   35  C   UNL     1      -0.019  13.276  24.152  0.00  0.00    -0.061 A 
HETATM   36  C   UNL     1      -0.695  12.421  25.040  0.00  0.00     0.014 A 
HETATM   37  C   UNL     1       1.150  14.093  24.619  0.00  0.00     0.048 C 
ENDBRANCH  30  31
ENDBRANCH  10  30
TORSDOF 7
ENDMDL
MODEL 4
REMARK VINA RESULT:    -8.745      2.210      8.208
REMARK INTER + INTRA:         -13.147
REMARK INTER:                 -11.931
REMARK INTRA:                  -1.215
REMARK UNBOUND:                -1.335
REMARK  7 active torsions:
REMARK  status: ('A' for Active; 'I' for Inactive)
REMARK    1  A    between atoms: O_1  and  C_2 
REMARK    2  A    between atoms: C_2  and  N_4 
REMARK    3  A    between atoms: C_10  and  N_13 
REMARK       I    between atoms: N_13  and  C_15 
REMARK    4  A    between atoms: C_15  and  C_17 
REMARK    5  A    between atoms: C_19  and  O_20 
REMARK    6  A    between atoms: C_27  and  C_28 
REMARK    7  A    between atoms: C_28  and  C_29 
ROOT
HETATM    1  C   UNL     1       4.200   7.469  22.890  0.00  0.00     0.066 A 
HETATM    2  C   UNL     1       3.676   7.853  21.629  0.00  0.00     0.035 A 
HETATM    3  C   UNL     1       5.364   6.697  22.933  0.00  0.00     0.083 A 
HETATM    4  C   UNL     1       5.937   6.166  21.771  0.00  0.00     0.069 A 
HETATM    5  C   UNL     1       5.362   6.518  20.552  0.00  0.00     0.065 A 
HETATM    6  C   UNL     1       4.262   7.362  20.439  0.00  0.00     0.020 A 
HETATM    7  N   UNL     1       5.717   6.211  19.265  0.00  0.00    -0.277 N 
HETATM    8  H   UNL     1       6.488   5.630  18.963  0.00  0.00     0.189 HD
HETATM    9  N   UNL     1       4.965   6.805  18.328  0.00  0.00    -0.178 NA
HETATM   10  C   UNL     1       4.054   7.501  19.028  0.00  0.00     0.071 A 
ENDROOT
BRANCH   1  11
HETATM   11  C   UNL     1       3.511   8.028  24.091  0.00  0.00     0.260 C 
HETATM   12  N   UNL     1       2.608   7.262  24.876  0.00  0.00    -0.318 N 
HETATM   13  C   UNL     1       2.446   5.813  24.732  0.00  0.00     0.159 C 
HETATM   14  O   UNL     1       3.809   9.202  24.323  0.00  0.00    -0.267 OA
BRANCH  12  15
HETATM   15  C   UNL     1       1.765   7.901  25.876  0.00  0.00     0.039 A 
HETATM   16  C   UNL     1       0.925   8.970  25.529  0.00  0.00     0.059 A 
HETATM   17  C   UNL     1       0.095   9.571  26.470  0.00  0.00     0.040 A 
HETATM   18  N   UNL     1      -0.723  10.705  26.288  0.00  0.00    -0.354 N 
HETATM   19  C   UNL     1       0.054   9.079  27.770  0.00  0.00    -0.030 A 
HETATM   20  C   UNL     1      -1.598  10.716  27.471  0.00  0.00     0.130 C 
HETATM   21  C   UNL     1      -0.920   9.873  28.572  0.00  0.00     0.060 C 
HETATM   22  C   UNL     1       0.854   8.022  28.168  0.00  0.00     0.012 A 
HETATM   23  C   UNL     1       1.713   7.442  27.215  0.00  0.00     0.030 A 
BRANCH  18  24
HETATM   24  C   UNL     1      -1.216  10.993  24.955  0.00  0.00     0.216 C 
HETATM   25  C   UNL     1      -2.712  10.790  24.784  0.00  0.00     0.063 C 
BRANCH  24  26
HETATM   26  O   UNL     1      -0.981  12.370  24.735  0.00  0.00    -0.377 OA
HETATM   27  H   UNL     1      -0.140  12.351  24.244  0.00  0.00     0.212 HD
ENDBRANCH  24  26
ENDBRANCH  18  24
ENDBRANCH  12  15
ENDBRANCH   1  11
BRANCH   3  28
HETATM   28  O   UNL     1       6.058   6.437  24.084  0.00  0.00    -0.360 OA
HETATM   29  H   UNL     1       5.959   7.209  24.677  0.00  0.00     0.217 HD
ENDBRANCH   3  28
BRANCH  10  30
HETATM   30  C   UNL     1       3.072   8.355  18.294  0.00  0.00     0.100 C 
BRANCH  30  31
HETATM   31  C   UNL     1       1.989   7.465  17.726  0.00  0.00    -0.052 A 
HETATM   32  C   UNL     1       1.727   7.481  16.349  0.00  0.00     0.007 A 
HETATM   33  C   UNL     1       0.840   6.563  15.785  0.00  0.00     0.001 A 
HETATM   34  C   UNL     1       0.173   5.645  16.593  0.00  0.00     0.007 A 
HETATM   35  C   UNL     1       0.360   5.655  17.979  0.00  0.00    -0.061 A 
HETATM   36  C   UNL     1       1.284   6.555  18.537  0.00  0.00     0.014 A 
HETATM   37  C   UNL     1      -0.453   4.751  18.860  0.00  0.00     0.048 C 
ENDBRANCH  30  31
ENDBRANCH  10  30
TORSDOF 7
ENDMDL
MODEL 5
REMARK VINA RESULT:    -8.673      3.662      8.557
REMARK INTER + INTRA:         -13.049
REMARK INTER:                 -11.839
REMARK INTRA:                  -1.211
REMARK UNBOUND:                -1.335
REMARK  7 active torsions:
REMARK  status: ('A' for Active; 'I' for Inactive)
REMARK    1  A    between atoms: O_1  and  C_2 
REMARK    2  A    between atoms: C_2  and  N_4 
REMARK    3  A    between atoms: C_10  and  N_13 
REMARK       I    between atoms: N_13  and  C_15 
REMARK    4  A    between atoms: C_15  and  C_17 
REMARK    5  A    between atoms: C_19  and  O_20 
REMARK    6  A    between atoms: C_27  and  C_28 
REMARK    7  A    between atoms: C_28  and  C_29 
ROOT
HETATM    1  C   UNL     1       4.160   6.515  22.771  0.00  0.00     0.066 A 
HETATM    2  C   UNL     1       3.558   7.144  21.651  0.00  0.00     0.035 A 
HETATM    3  C   UNL     1       5.538   6.283  22.757  0.00  0.00     0.083 A 
HETATM    4  C   UNL     1       6.310   6.513  21.612  0.00  0.00     0.069 A 
HETATM    5  C   UNL     1       5.674   7.080  20.510  0.00  0.00     0.065 A 
HETATM    6  C   UNL     1       4.326   7.423  20.496  0.00  0.00     0.020 A 
HETATM    7  N   UNL     1       6.158   7.465  19.288  0.00  0.00    -0.277 N 
HETATM    8  H   UNL     1       7.109   7.384  18.951  0.00  0.00     0.189 HD
HETATM    9  N   UNL     1       5.253   8.057  18.497  0.00  0.00    -0.178 NA
HETATM   10  C   UNL     1       4.117   8.024  19.213  0.00  0.00     0.071 A 
ENDROOT
BRANCH   1  11
HETATM   11  C   UNL     1       3.270   6.251  23.940  0.00  0.00     0.260 C 
HETATM   12  N   UNL     1       2.746   7.295  24.749  0.00  0.00    -0.318 N 
HETATM   13  C   UNL     1       2.829   8.712  24.386  0.00  0.00     0.159 C 
HETATM   14  O   UNL     1       3.043   5.052  24.121  0.00  0.00    -0.267 OA
BRANCH  12  15
HETATM   15  C   UNL     1       2.099   6.999  26.019  0.00  0.00     0.039 A 
HETATM   16  C   UNL     1       2.814   7.078  27.224  0.00  0.00     0.059 A 
HETATM   17  C   UNL     1       2.201   6.824  28.446  0.00  0.00     0.040 A 
HETATM   18  N   UNL     1       2.812   6.774  29.716  0.00  0.00    -0.354 N 
HETATM   19  C   UNL     1       0.842   6.532  28.489  0.00  0.00    -0.030 A 
HETATM   20  C   UNL     1       1.687   6.784  30.663  0.00  0.00     0.130 C 
HETATM   21  C   UNL     1       0.424   6.323  29.905  0.00  0.00     0.060 C 
HETATM   22  C   UNL     1       0.084   6.447  27.335  0.00  0.00     0.012 A 
HETATM   23  C   UNL     1       0.723   6.676  26.101  0.00  0.00     0.030 A 
BRANCH  18  24
HETATM   24  C   UNL     1       4.018   7.551  29.932  0.00  0.00     0.216 C 
HETATM   25  C   UNL     1       3.781   9.047  30.061  0.00  0.00     0.063 C 
BRANCH  24  26
HETATM   26  O   UNL     1       4.542   7.130  31.175  0.00  0.00    -0.377 OA
HETATM   27  H   UNL     1       4.595   6.165  31.051  0.00  0.00     0.212 HD
ENDBRANCH  24  26
ENDBRANCH  18  24
ENDBRANCH  12  15
ENDBRANCH   1  11
BRANCH   3  28
HETATM   28  O   UNL     1       6.246   5.865  23.852  0.00  0.00    -0.360 OA
HETATM   29  H   UNL     1       7.060   6.405  23.909  0.00  0.00     0.217 HD
ENDBRANCH   3  28
BRANCH  10  30
HETATM   30  C   UNL     1       2.888   8.667  18.656  0.00  0.00     0.100 C 
BRANCH  30  31
HETATM   31  C   UNL     1       2.079   7.615  17.931  0.00  0.00    -0.052 A 
HETATM   32  C   UNL     1       2.139   7.531  16.534  0.00  0.00     0.007 A 
HETATM   33  C   UNL     1       1.522   6.477  15.859  0.00  0.00     0.001 A 
HETATM   34  C   UNL     1       0.801   5.517  16.566  0.00  0.00     0.007 A 
HETATM   35  C   UNL     1       0.663   5.617  17.954  0.00  0.00    -0.061 A 
HETATM   36  C   UNL     1       1.321   6.658  18.633  0.00  0.00     0.014 A 
HETATM   37  C   UNL     1      -0.216   4.656  18.699  0.00  0.00     0.048 C 
ENDBRANCH  30  31
ENDBRANCH  10  30
TORSDOF 7
ENDMDL
MODEL 6
REMARK VINA RESULT:    -8.500      3.258      8.664
REMARK INTER + INTRA:         -12.817
REMARK INTER:                 -11.484
REMARK INTRA:                  -1.333
REMARK UNBOUND:                -1.335
REMARK  7 active torsions:
REMARK  status: ('A' for Active; 'I' for Inactive)
REMARK    1  A    between atoms: O_1  and  C_2 
REMARK    2  A    between atoms: C_2  and  N_4 
REMARK    3  A    between atoms: C_10  and  N_13 
REMARK       I    between atoms: N_13  and  C_15 
REMARK    4  A    between atoms: C_15  and  C_17 
REMARK    5  A    between atoms: C_19  and  O_20 
REMARK    6  A    between atoms: C_27  and  C_28 
REMARK    7  A    between atoms: C_28  and  C_29 
ROOT
HETATM    1  C   UNL     1       4.265   7.351  22.970  0.00  0.00     0.066 A 
HETATM    2  C   UNL     1       3.681   7.783  21.751  0.00  0.00     0.035 A 
HETATM    3  C   UNL     1       5.465   6.637  22.929  0.00  0.00     0.083 A 
HETATM    4  C   UNL     1       6.024   6.206  21.720  0.00  0.00     0.069 A 
HETATM    5  C   UNL     1       5.392   6.600  20.543  0.00  0.00     0.065 A 
HETATM    6  C   UNL     1       4.249   7.393  20.515  0.00  0.00     0.020 A 
HETATM    7  N   UNL     1       5.717   6.388  19.230  0.00  0.00    -0.277 N 
HETATM    8  H   UNL     1       6.504   5.865  18.869  0.00  0.00     0.189 HD
HETATM    9  N   UNL     1       4.907   6.998  18.354  0.00  0.00    -0.178 NA
HETATM   10  C   UNL     1       3.987   7.605  19.123  0.00  0.00     0.071 A 
ENDROOT
BRANCH   1  11
HETATM   11  C   UNL     1       3.591   7.803  24.223  0.00  0.00     0.260 C 
HETATM   12  N   UNL     1       2.760   6.945  24.992  0.00  0.00    -0.318 N 
HETATM   13  C   UNL     1       2.671   5.499  24.769  0.00  0.00     0.159 C 
HETATM   14  O   UNL     1       3.833   8.978  24.512  0.00  0.00    -0.267 OA
BRANCH  12  15
HETATM   15  C   UNL     1       1.920   7.479  26.055  0.00  0.00     0.039 A 
HETATM   16  C   UNL     1       2.331   7.411  27.396  0.00  0.00     0.059 A 
HETATM   17  C   UNL     1       1.551   7.942  28.418  0.00  0.00     0.040 A 
HETATM   18  N   UNL     1       1.789   7.862  29.805  0.00  0.00    -0.354 N 
HETATM   19  C   UNL     1       0.362   8.595  28.111  0.00  0.00    -0.030 A 
HETATM   20  C   UNL     1       0.854   8.834  30.392  0.00  0.00     0.130 C 
HETATM   21  C   UNL     1      -0.272   9.088  29.367  0.00  0.00     0.060 C 
HETATM   22  C   UNL     1      -0.089   8.700  26.807  0.00  0.00     0.012 A 
HETATM   23  C   UNL     1       0.693   8.132  25.784  0.00  0.00     0.030 A 
BRANCH  18  24
HETATM   24  C   UNL     1       3.160   7.729  30.263  0.00  0.00     0.216 C 
HETATM   25  C   UNL     1       4.017   8.962  30.033  0.00  0.00     0.063 C 
BRANCH  24  26
HETATM   26  O   UNL     1       3.094   7.554  31.664  0.00  0.00    -0.377 OA
HETATM   27  H   UNL     1       2.155   7.748  31.843  0.00  0.00     0.212 HD
ENDBRANCH  24  26
ENDBRANCH  18  24
ENDBRANCH  12  15
ENDBRANCH   1  11
BRANCH   3  28
HETATM   28  O   UNL     1       6.209   6.345  24.041  0.00  0.00    -0.360 OA
HETATM   29  H   UNL     1       6.853   7.069  24.173  0.00  0.00     0.217 HD
ENDBRANCH   3  28
BRANCH  10  30
HETATM   30  C   UNL     1       2.941   8.451  18.474  0.00  0.00     0.100 C 
BRANCH  30  31
HETATM   31  C   UNL     1       1.936   7.544  17.801  0.00  0.00    -0.052 A 
HETATM   32  C   UNL     1       1.773   7.595  16.410  0.00  0.00     0.007 A 
HETATM   33  C   UNL     1       0.963   6.666  15.755  0.00  0.00     0.001 A 
HETATM   34  C   UNL     1       0.274   5.699  16.484  0.00  0.00     0.007 A 
HETATM   35  C   UNL     1       0.360   5.670  17.879  0.00  0.00    -0.061 A 
HETATM   36  C   UNL     1       1.209   6.583  18.530  0.00  0.00     0.014 A 
HETATM   37  C   UNL     1      -0.479   4.710  18.671  0.00  0.00     0.048 C 
ENDBRANCH  30  31
ENDBRANCH  10  30
TORSDOF 7
ENDMDL
MODEL 7
REMARK VINA RESULT:    -8.424      1.627      2.434
REMARK INTER + INTRA:         -12.714
REMARK INTER:                 -11.267
REMARK INTRA:                  -1.447
REMARK UNBOUND:                -1.335
REMARK  7 active torsions:
REMARK  status: ('A' for Active; 'I' for Inactive)
REMARK    1  A    between atoms: O_1  and  C_2 
REMARK    2  A    between atoms: C_2  and  N_4 
REMARK    3  A    between atoms: C_10  and  N_13 
REMARK       I    between atoms: N_13  and  C_15 
REMARK    4  A    between atoms: C_15  and  C_17 
REMARK    5  A    between atoms: C_19  and  O_20 
REMARK    6  A    between atoms: C_27  and  C_28 
REMARK    7  A    between atoms: C_28  and  C_29 
ROOT
HETATM    1  C   UNL     1       2.715   6.998  25.483  0.00  0.00     0.066 A 
HETATM    2  C   UNL     1       1.488   7.704  25.405  0.00  0.00     0.035 A 
HETATM    3  C   UNL     1       3.414   6.986  26.693  0.00  0.00     0.083 A 
HETATM    4  C   UNL     1       3.015   7.774  27.779  0.00  0.00     0.069 A 
HETATM    5  C   UNL     1       1.834   8.500  27.648  0.00  0.00     0.065 A 
HETATM    6  C   UNL     1       1.043   8.476  26.503  0.00  0.00     0.020 A 
HETATM    7  N   UNL     1       1.167   9.306  28.532  0.00  0.00    -0.277 N 
HETATM    8  H   UNL     1       1.441   9.539  29.477  0.00  0.00     0.189 HD
HETATM    9  N   UNL     1      -0.001   9.780  28.075  0.00  0.00    -0.178 NA
HETATM   10  C   UNL     1      -0.086   9.297  26.824  0.00  0.00     0.071 A 
ENDROOT
BRANCH   1  11
HETATM   11  C   UNL     1       3.109   6.217  24.272  0.00  0.00     0.260 C 
HETATM   12  N   UNL     1       3.623   6.837  23.101  0.00  0.00    -0.318 N 
HETATM   13  C   UNL     1       4.033   8.243  23.050  0.00  0.00     0.159 C 
HETATM   14  O   UNL     1       2.944   5.002  24.399  0.00  0.00    -0.267 OA
BRANCH  12  15
HETATM   15  C   UNL     1       3.755   6.089  21.860  0.00  0.00     0.039 A 
HETATM   16  C   UNL     1       2.673   5.975  20.972  0.00  0.00     0.059 A 
HETATM   17  C   UNL     1       2.794   5.286  19.771  0.00  0.00     0.040 A 
HETATM   18  N   UNL     1       1.775   5.012  18.835  0.00  0.00    -0.354 N 
HETATM   19  C   UNL     1       4.020   4.736  19.410  0.00  0.00    -0.030 A 
HETATM   20  C   UNL     1       2.494   4.548  17.638  0.00  0.00     0.130 C 
HETATM   21  C   UNL     1       3.896   4.074  18.080  0.00  0.00     0.060 C 
HETATM   22  C   UNL     1       5.123   4.822  20.241  0.00  0.00     0.012 A 
HETATM   23  C   UNL     1       4.980   5.496  21.469  0.00  0.00     0.030 A 
BRANCH  18  24
HETATM   24  C   UNL     1       0.646   5.920  18.760  0.00  0.00     0.216 C 
HETATM   25  C   UNL     1       0.209   6.257  17.345  0.00  0.00     0.063 C 
BRANCH  24  26
HETATM   26  O   UNL     1      -0.444   5.245  19.356  0.00  0.00    -0.377 OA
HETATM   27  H   UNL     1      -0.243   4.316  19.140  0.00  0.00     0.212 HD
ENDBRANCH  24  26
ENDBRANCH  18  24
ENDBRANCH  12  15
ENDBRANCH   1  11
BRANCH   3  28
HETATM   28  O   UNL     1       4.497   6.184  26.934  0.00  0.00    -0.360 OA
HETATM   29  H   UNL     1       4.168   5.304  27.205  0.00  0.00     0.217 HD
ENDBRANCH   3  28
BRANCH  10  30
HETATM   30  C   UNL     1      -1.314   9.577  26.020  0.00  0.00     0.100 C 
BRANCH  30  31
HETATM   31  C   UNL     1      -1.018  10.712  25.065  0.00  0.00    -0.052 A 
HETATM   32  C   UNL     1      -1.736  10.819  23.867  0.00  0.00     0.007 A 
HETATM   33  C   UNL     1      -1.585  11.937  23.046  0.00  0.00     0.001 A 
HETATM   34  C   UNL     1      -0.685  12.943  23.391  0.00  0.00     0.007 A 
HETATM   35  C   UNL     1       0.099  12.827  24.543  0.00  0.00    -0.061 A 
HETATM   36  C   UNL     1      -0.087  11.718  25.387  0.00  0.00     0.014 A 
HETATM   37  C   UNL     1       1.156  13.849  24.846  0.00  0.00     0.048 C 
ENDBRANCH  30  31
ENDBRANCH  10  30
TORSDOF 7
ENDMDL
MODEL 8
REMARK VINA RESULT:    -8.337      1.560      1.989
REMARK INTER + INTRA:         -12.595
REMARK INTER:                 -11.261
REMARK INTRA:                  -1.335
REMARK UNBOUND:                -1.335
REMARK  7 active torsions:
REMARK  status: ('A' for Active; 'I' for Inactive)
REMARK    1  A    between atoms: O_1  and  C_2 
REMARK    2  A    between atoms: C_2  and  N_4 
REMARK    3  A    between atoms: C_10  and  N_13 
REMARK       I    between atoms: N_13  and  C_15 
REMARK    4  A    between atoms: C_15  and  C_17 
REMARK    5  A    between atoms: C_19  and  O_20 
REMARK    6  A    between atoms: C_27  and  C_28 
REMARK    7  A    between atoms: C_28  and  C_29 
ROOT
HETATM    1  C   UNL     1       1.223   7.512  26.848  0.00  0.00     0.066 A 
HETATM    2  C   UNL     1       0.249   8.298  26.181  0.00  0.00     0.035 A 
HETATM    3  C   UNL     1       1.370   7.649  28.231  0.00  0.00     0.083 A 
HETATM    4  C   UNL     1       0.694   8.643  28.948  0.00  0.00     0.069 A 
HETATM    5  C   UNL     1      -0.214   9.434  28.249  0.00  0.00     0.065 A 
HETATM    6  C   UNL     1      -0.477   9.283  26.891  0.00  0.00     0.020 A 
HETATM    7  N   UNL     1      -1.050  10.434  28.670  0.00  0.00    -0.277 N 
HETATM    8  H   UNL     1      -1.145  10.802  29.608  0.00  0.00     0.189 HD
HETATM    9  N   UNL     1      -1.854  10.922  27.715  0.00  0.00    -0.178 NA
HETATM   10  C   UNL     1      -1.504  10.241  26.610  0.00  0.00     0.071 A 
ENDROOT
BRANCH   1  11
HETATM   11  C   UNL     1       1.945   6.505  26.016  0.00  0.00     0.260 C 
HETATM   12  N   UNL     1       2.868   6.877  25.001  0.00  0.00    -0.318 N 
HETATM   13  C   UNL     1       3.371   8.243  24.833  0.00  0.00     0.159 C 
HETATM   14  O   UNL     1       1.661   5.340  26.302  0.00  0.00    -0.267 OA
BRANCH  12  15
HETATM   15  C   UNL     1       3.358   5.896  24.044  0.00  0.00     0.039 A 
HETATM   16  C   UNL     1       2.607   5.570  22.904  0.00  0.00     0.059 A 
HETATM   17  C   UNL     1       3.076   4.654  21.968  0.00  0.00     0.040 A 
HETATM   18  N   UNL     1       2.395   4.163  20.835  0.00  0.00    -0.354 N 
HETATM   19  C   UNL     1       4.333   4.080  22.133  0.00  0.00    -0.030 A 
HETATM   20  C   UNL     1       3.438   3.487  20.048  0.00  0.00     0.130 C 
HETATM   21  C   UNL     1       4.611   3.157  20.996  0.00  0.00     0.060 C 
HETATM   22  C   UNL     1       5.120   4.369  23.233  0.00  0.00     0.012 A 
HETATM   23  C   UNL     1       4.622   5.274  24.190  0.00  0.00     0.030 A 
BRANCH  18  24
HETATM   24  C   UNL     1       1.380   5.000  20.225  0.00  0.00     0.216 C 
HETATM   25  C   UNL     1       1.897   5.899  19.114  0.00  0.00     0.063 C 
BRANCH  24  26
HETATM   26  O   UNL     1       0.455   4.121  19.618  0.00  0.00    -0.377 OA
HETATM   27  H   UNL     1       1.045   3.525  19.121  0.00  0.00     0.212 HD
ENDBRANCH  24  26
ENDBRANCH  18  24
ENDBRANCH  12  15
ENDBRANCH   1  11
BRANCH   3  28
HETATM   28  O   UNL     1       2.135   6.809  28.997  0.00  0.00    -0.360 OA
HETATM   29  H   UNL     1       2.945   7.291  29.257  0.00  0.00     0.217 HD
ENDBRANCH   3  28
BRANCH  10  30
HETATM   30  C   UNL     1      -2.252  10.483  25.340  0.00  0.00     0.100 C 
BRANCH  30  31
HETATM   31  C   UNL     1      -1.478  11.478  24.506  0.00  0.00    -0.052 A 
HETATM   32  C   UNL     1      -1.797  11.650  23.152  0.00  0.00     0.007 A 
HETATM   33  C   UNL     1      -1.199  12.665  22.405  0.00  0.00     0.001 A 
HETATM   34  C   UNL     1      -0.244  13.496  22.988  0.00  0.00     0.007 A 
HETATM   35  C   UNL     1       0.147  13.301  24.316  0.00  0.00    -0.061 A 
HETATM   36  C   UNL     1      -0.488  12.302  25.075  0.00  0.00     0.014 A 
HETATM   37  C   UNL     1       1.263  14.113  24.904  0.00  0.00     0.048 C 
ENDBRANCH  30  31
ENDBRANCH  10  30
TORSDOF 7
ENDMDL
MODEL 9
REMARK VINA RESULT:    -8.303      2.875      5.278
REMARK INTER + INTRA:         -12.549
REMARK INTER:                 -11.811
REMARK INTRA:                  -0.738
REMARK UNBOUND:                -1.335
REMARK  7 active torsions:
REMARK  status: ('A' for Active; 'I' for Inactive)
REMARK    1  A    between atoms: O_1  and  C_2 
REMARK    2  A    between atoms: C_2  and  N_4 
REMARK    3  A    between atoms: C_10  and  N_13 
REMARK       I    between atoms: N_13  and  C_15 
REMARK    4  A    between atoms: C_15  and  C_17 
REMARK    5  A    between atoms: C_19  and  O_20 
REMARK    6  A    between atoms: C_27  and  C_28 
REMARK    7  A    between atoms: C_28  and  C_29 
ROOT
HETATM    1  C   UNL     1       3.695   6.557  22.738  0.00  0.00     0.066 A 
HETATM    2  C   UNL     1       2.605   6.641  23.642  0.00  0.00     0.035 A 
HETATM    3  C   UNL     1       4.997   6.611  23.241  0.00  0.00     0.083 A 
HETATM    4  C   UNL     1       5.255   6.897  24.587  0.00  0.00     0.069 A 
HETATM    5  C   UNL     1       4.159   7.029  25.437  0.00  0.00     0.065 A 
HETATM    6  C   UNL     1       2.841   6.890  25.015  0.00  0.00     0.020 A 
HETATM    7  N   UNL     1       4.085   7.252  26.786  0.00  0.00    -0.277 N 
HETATM    8  H   UNL     1       4.855   7.384  27.429  0.00  0.00     0.189 HD
HETATM    9  N   UNL     1       2.840   7.238  27.282  0.00  0.00    -0.178 NA
HETATM   10  C   UNL     1       2.060   7.036  26.207  0.00  0.00     0.071 A 
ENDROOT
BRANCH   1  11
HETATM   11  C   UNL     1       3.350   6.301  21.308  0.00  0.00     0.260 C 
HETATM   12  N   UNL     1       3.482   7.297  20.303  0.00  0.00    -0.318 N 
HETATM   13  C   UNL     1       4.176   8.570  20.518  0.00  0.00     0.159 C 
HETATM   14  O   UNL     1       2.950   5.153  21.099  0.00  0.00    -0.267 OA
BRANCH  12  15
HETATM   15  C   UNL     1       2.903   7.102  18.982  0.00  0.00     0.039 A 
HETATM   16  C   UNL     1       2.741   5.812  18.453  0.00  0.00     0.059 A 
HETATM   17  C   UNL     1       2.165   5.612  17.203  0.00  0.00     0.040 A 
HETATM   18  N   UNL     1       2.027   4.391  16.511  0.00  0.00    -0.354 N 
HETATM   19  C   UNL     1       1.694   6.700  16.477  0.00  0.00    -0.030 A 
HETATM   20  C   UNL     1       1.092   4.696  15.416  0.00  0.00     0.130 C 
HETATM   21  C   UNL     1       1.107   6.224  15.192  0.00  0.00     0.060 C 
HETATM   22  C   UNL     1       1.819   7.994  16.951  0.00  0.00     0.012 A 
HETATM   23  C   UNL     1       2.433   8.188  18.203  0.00  0.00     0.030 A 
BRANCH  18  24
HETATM   24  C   UNL     1       1.944   3.166  17.283  0.00  0.00     0.216 C 
HETATM   25  C   UNL     1       0.729   2.311  16.970  0.00  0.00     0.063 C 
BRANCH  24  26
HETATM   26  O   UNL     1       3.070   2.393  16.920  0.00  0.00    -0.377 OA
HETATM   27  H   UNL     1       2.693   1.799  16.244  0.00  0.00     0.212 HD
ENDBRANCH  24  26
ENDBRANCH  18  24
ENDBRANCH  12  15
ENDBRANCH   1  11
BRANCH   3  28
HETATM   28  O   UNL     1       6.111   6.347  22.488  0.00  0.00    -0.360 OA
HETATM   29  H   UNL     1       5.938   5.537  21.968  0.00  0.00     0.217 HD
ENDBRANCH   3  28
BRANCH  10  30
HETATM   30  C   UNL     1       0.585   6.896  26.397  0.00  0.00     0.100 C 
BRANCH  30  31
HETATM   31  C   UNL     1      -0.053   8.258  26.245  0.00  0.00    -0.052 A 
HETATM   32  C   UNL     1      -0.380   8.736  24.969  0.00  0.00     0.007 A 
HETATM   33  C   UNL     1      -1.103   9.920  24.818  0.00  0.00     0.001 A 
HETATM   34  C   UNL     1      -1.473  10.664  25.937  0.00  0.00     0.007 A 
HETATM   35  C   UNL     1      -1.097  10.249  27.218  0.00  0.00    -0.061 A 
HETATM   36  C   UNL     1      -0.404   9.035  27.367  0.00  0.00     0.014 A 
HETATM   37  C   UNL     1      -1.387  11.113  28.410  0.00  0.00     0.048 C 
ENDBRANCH  30  31
ENDBRANCH  10  30
TORSDOF 7
ENDMDL
