REMARK  7 active torsions:
REMARK  status: ('A' for Active; 'I' for Inactive)
REMARK    1  A    between atoms: O_1  and  C_2 
REMARK    2  A    between atoms: C_2  and  N_4 
REMARK    3  A    between atoms: C_10  and  N_13 
REMARK       I    between atoms: N_13  and  C_15 
REMARK    4  A    between atoms: C_15  and  C_17 
REMARK    5  A    between atoms: C_19  and  O_20 
REMARK    6  A    between atoms: C_27  and  C_28 
REMARK    7  A    between atoms: C_28  and  C_29 
ROOT
HETATM    1  C   UNL     1      -0.713  -5.780  -3.586  0.00  0.00     0.066 A 
HETATM    2  C   UNL     1      -0.503  -7.135  -3.950  0.00  0.00     0.035 A 
HETATM    3  C   UNL     1      -1.462  -4.960  -4.434  0.00  0.00     0.083 A 
HETATM    4  C   UNL     1      -1.878  -5.394  -5.698  0.00  0.00     0.069 A 
HETATM    5  C   UNL     1      -1.605  -6.715  -6.046  0.00  0.00     0.065 A 
HETATM    6  C   UNL     1      -0.949  -7.609  -5.206  0.00  0.00     0.020 A 
HETATM    7  N   UNL     1      -1.922  -7.437  -7.166  0.00  0.00    -0.277 N 
HETATM    8  H   UNL     1      -2.420  -7.113  -7.985  0.00  0.00     0.189 HD
HETATM    9  N   UNL     1      -1.559  -8.726  -7.114  0.00  0.00    -0.178 NA
HETATM   10  C   UNL     1      -0.943  -8.847  -5.926  0.00  0.00     0.071 A 
ENDROOT
BRANCH   1  11
HETATM   11  C   UNL     1      -0.200  -5.367  -2.246  0.00  0.00     0.260 C 
HETATM   12  N   UNL     1       0.607  -4.212  -2.063  0.00  0.00    -0.318 N 
HETATM   13  C   UNL     1       0.815  -3.203  -3.105  0.00  0.00     0.159 C 
HETATM   14  O   UNL     1      -0.549  -6.122  -1.335  0.00  0.00    -0.267 OA
BRANCH  12  15
HETATM   15  C   UNL     1       1.298  -3.979  -0.803  0.00  0.00     0.039 A 
HETATM   16  C   UNL     1       1.641  -5.051   0.036  0.00  0.00     0.059 A 
HETATM   17  C   UNL     1       2.325  -4.844   1.229  0.00  0.00     0.040 A 
HETATM   18  N   UNL     1       2.648  -5.806   2.208  0.00  0.00    -0.354 N 
HETATM   19  C   UNL     1       2.723  -3.559   1.583  0.00  0.00    -0.030 A 
HETATM   20  C   UNL     1       3.619  -5.127   3.080  0.00  0.00     0.130 C 
HETATM   21  C   UNL     1       3.451  -3.605   2.883  0.00  0.00     0.060 C 
HETATM   22  C   UNL     1       2.420  -2.465   0.792  0.00  0.00     0.012 A 
HETATM   23  C   UNL     1       1.700  -2.683  -0.398  0.00  0.00     0.030 A 
BRANCH  18  24
HETATM   24  C   UNL     1       2.810  -7.186   1.791  0.00  0.00     0.216 C 
HETATM   25  C   UNL     1       3.526  -8.064   2.803  0.00  0.00     0.063 C 
BRANCH  24  26
HETATM   26  O   UNL     1       1.506  -7.717   1.666  0.00  0.00    -0.377 OA
HETATM   27  H   UNL     1       0.958  -6.969   1.967  0.00  0.00     0.212 HD
ENDBRANCH  24  26
ENDBRANCH  18  24
ENDBRANCH  12  15
ENDBRANCH   1  11
BRANCH   3  28
HETATM   28  O   UNL     1      -1.887  -3.704  -4.091  0.00  0.00    -0.360 OA
HETATM   29  H   UNL     1      -1.962  -3.666  -3.117  0.00  0.00     0.217 HD
ENDBRANCH   3  28
BRANCH  10  30
HETATM   30  C   UNL     1      -0.455 -10.192  -5.495  0.00  0.00     0.100 C 
BRANCH  30  31
HETATM   31  C   UNL     1       1.003 -10.321  -5.874  0.00  0.00    -0.052 A 
HETATM   32  C   UNL     1       1.991 -10.226  -4.885  0.00  0.00     0.007 A 
HETATM   33  C   UNL     1       3.327 -10.491  -5.188  0.00  0.00     0.001 A 
HETATM   34  C   UNL     1       3.700 -10.814  -6.491  0.00  0.00     0.007 A 
HETATM   35  C   UNL     1       2.746 -10.844  -7.513  0.00  0.00    -0.061 A 
HETATM   36  C   UNL     1       1.396 -10.616  -7.194  0.00  0.00     0.014 A 
HETATM   37  C   UNL     1       3.167 -11.068  -8.936  0.00  0.00     0.048 C 
ENDBRANCH  30  31
ENDBRANCH  10  30
TORSDOF 7
