MODEL 1
REMARK VINA RESULT:    -8.433      0.000      0.000
REMARK INTER + INTRA:         -11.836
REMARK INTER:                 -10.528
REMARK INTRA:                  -1.308
REMARK UNBOUND:                -1.184
REMARK  5 active torsions:
REMARK  status: ('A' for Active; 'I' for Inactive)
REMARK    1  A    between atoms: N_10  and  C_14 
REMARK    2  A    between atoms: C_17  and  C_18 
REMARK       I    between atoms: C_18  and  N_20 
REMARK    3  A    between atoms: C_22  and  N_23 
REMARK    4  A    between atoms: N_23  and  C_24 
REMARK    5  A    between atoms: C_27  and  O_28 
ROOT
HETATM    1  C   UNL     1       4.243   6.164  22.967  0.00  0.00     0.041 A 
HETATM    2  C   UNL     1       5.629   6.067  22.880  0.00  0.00     0.031 A 
HETATM    3  C   UNL     1       6.315   6.653  21.805  0.00  0.00     0.022 A 
HETATM    4  C   UNL     1       5.628   7.325  20.782  0.00  0.00     0.058 A 
HETATM    5  C   UNL     1       3.570   6.777  21.890  0.00  0.00     0.060 A 
HETATM    6  C   UNL     1       4.223   7.369  20.794  0.00  0.00     0.046 A 
ENDROOT
BRANCH   1   7
HETATM    7  N   UNL     1       3.473   5.699  24.096  0.00  0.00    -0.324 N 
HETATM    8  C   UNL     1       2.591   6.385  24.932  0.00  0.00     0.031 A 
HETATM    9  C   UNL     1       2.150   7.812  24.827  0.00  0.00     0.067 C 
HETATM   10  C   UNL     1       2.123   5.511  25.910  0.00  0.00     0.040 A 
HETATM   11  C   UNL     1       0.857   8.081  25.650  0.00  0.00    -0.036 C 
HETATM   12  C   UNL     1       0.954   7.434  27.052  0.00  0.00     0.093 C 
HETATM   13  C   UNL     1      -0.378   7.538  24.896  0.00  0.00     0.015 C 
HETATM   14  C   UNL     1       0.685   9.601  25.810  0.00  0.00     0.015 C 
HETATM   15  C   UNL     1       1.222   5.941  26.974  0.00  0.00     0.162 C 
HETATM   16  O   UNL     1       0.747   5.161  27.796  0.00  0.00    -0.292 OA
HETATM   17  C   UNL     1       2.612   4.223  25.613  0.00  0.00    -0.030 A 
HETATM   18  C   UNL     1       3.434   4.375  24.521  0.00  0.00     0.105 A 
HETATM   19  C   UNL     1       2.300   2.950  26.315  0.00  0.00     0.050 C 
ENDBRANCH   1   7
BRANCH   6  20
HETATM   20  N   UNL     1       3.485   8.032  19.821  0.00  0.00    -0.384 N 
HETATM   21  H   UNL     1       3.579   9.047  19.786  0.00  0.00     0.160 HD
BRANCH  20  22
HETATM   22  C   UNL     1       2.625   7.368  18.851  0.00  0.00     0.082 C 
HETATM   23  C   UNL     1       3.323   6.150  18.233  0.00  0.00     0.027 C 
HETATM   24  C   UNL     1       2.459   5.521  17.142  0.00  0.00     0.034 C 
HETATM   25  C   UNL     1       2.120   6.539  16.058  0.00  0.00     0.118 C 
HETATM   26  C   UNL     1       1.423   7.764  16.648  0.00  0.00     0.034 C 
HETATM   27  C   UNL     1       2.248   8.391  17.766  0.00  0.00     0.027 C 
BRANCH  25  28
HETATM   28  O   UNL     1       1.288   5.942  15.072  0.00  0.00    -0.396 OA
HETATM   29  H   UNL     1       0.381   5.894  15.419  0.00  0.00     0.210 HD
ENDBRANCH  25  28
ENDBRANCH  20  22
ENDBRANCH   6  20
BRANCH   4  30
HETATM   30  C   UNL     1       6.469   8.004  19.754  0.00  0.00     0.251 C 
HETATM   31  O   UNL     1       6.019   8.338  18.664  0.00  0.00    -0.268 OA
HETATM   32  N   UNL     1       7.794   8.182  20.047  0.00  0.00    -0.366 N 
HETATM   33  H   UNL     1       8.200   7.710  20.844  0.00  0.00     0.159 HD
HETATM   34  H   UNL     1       8.398   8.502  19.303  0.00  0.00     0.159 HD
ENDBRANCH   4  30
TORSDOF 5
ENDMDL
MODEL 2
REMARK VINA RESULT:    -8.403      3.390      7.601
REMARK INTER + INTRA:         -11.798
REMARK INTER:                 -10.483
REMARK INTRA:                  -1.316
REMARK UNBOUND:                -1.184
REMARK  5 active torsions:
REMARK  status: ('A' for Active; 'I' for Inactive)
REMARK    1  A    between atoms: N_10  and  C_14 
REMARK    2  A    between atoms: C_17  and  C_18 
REMARK       I    between atoms: C_18  and  N_20 
REMARK    3  A    between atoms: C_22  and  N_23 
REMARK    4  A    between atoms: N_23  and  C_24 
REMARK    5  A    between atoms: C_27  and  O_28 
ROOT
HETATM    1  C   UNL     1       3.029   7.897  24.463  0.00  0.00     0.041 A 
HETATM    2  C   UNL     1       3.205   7.126  25.609  0.00  0.00     0.031 A 
HETATM    3  C   UNL     1       2.506   7.436  26.785  0.00  0.00     0.022 A 
HETATM    4  C   UNL     1       1.637   8.536  26.849  0.00  0.00     0.058 A 
HETATM    5  C   UNL     1       2.212   9.040  24.573  0.00  0.00     0.060 A 
HETATM    6  C   UNL     1       1.500   9.385  25.736  0.00  0.00     0.046 A 
ENDROOT
BRANCH   1   7
HETATM    7  N   UNL     1       3.613   7.578  23.181  0.00  0.00    -0.324 N 
HETATM    8  C   UNL     1       3.625   6.378  22.468  0.00  0.00     0.031 A 
HETATM    9  C   UNL     1       2.955   5.088  22.830  0.00  0.00     0.067 C 
HETATM   10  C   UNL     1       4.353   6.557  21.295  0.00  0.00     0.040 A 
HETATM   11  C   UNL     1       2.828   4.137  21.605  0.00  0.00    -0.036 C 
HETATM   12  C   UNL     1       4.153   4.088  20.809  0.00  0.00     0.093 C 
HETATM   13  C   UNL     1       1.672   4.598  20.690  0.00  0.00     0.015 C 
HETATM   14  C   UNL     1       2.497   2.724  22.114  0.00  0.00     0.015 C 
HETATM   15  C   UNL     1       4.597   5.469  20.354  0.00  0.00     0.162 C 
HETATM   16  O   UNL     1       5.175   5.635  19.282  0.00  0.00    -0.292 OA
HETATM   17  C   UNL     1       4.696   7.921  21.198  0.00  0.00    -0.030 A 
HETATM   18  C   UNL     1       4.246   8.504  22.360  0.00  0.00     0.105 A 
HETATM   19  C   UNL     1       5.385   8.606  20.074  0.00  0.00     0.050 C 
ENDBRANCH   1   7
BRANCH   6  20
HETATM   20  N   UNL     1       0.645  10.479  25.728  0.00  0.00    -0.384 N 
HETATM   21  H   UNL     1       0.709  11.118  26.520  0.00  0.00     0.160 HD
BRANCH  20  22
HETATM   22  C   UNL     1      -0.300  10.773  24.659  0.00  0.00     0.082 C 
HETATM   23  C   UNL     1      -0.038  12.158  24.052  0.00  0.00     0.027 C 
HETATM   24  C   UNL     1      -1.094  12.504  23.006  0.00  0.00     0.034 C 
HETATM   25  C   UNL     1      -2.497  12.449  23.605  0.00  0.00     0.118 C 
HETATM   26  C   UNL     1      -2.783  11.079  24.217  0.00  0.00     0.034 C 
HETATM   27  C   UNL     1      -1.722  10.691  25.240  0.00  0.00     0.027 C 
BRANCH  25  28
HETATM   28  O   UNL     1      -3.465  12.741  22.607  0.00  0.00    -0.396 OA
HETATM   29  H   UNL     1      -3.286  12.185  21.829  0.00  0.00     0.210 HD
ENDBRANCH  25  28
ENDBRANCH  20  22
ENDBRANCH   6  20
BRANCH   4  30
HETATM   30  C   UNL     1       0.864   8.699  28.114  0.00  0.00     0.251 C 
HETATM   31  O   UNL     1      -0.358   8.783  28.122  0.00  0.00    -0.268 OA
HETATM   32  N   UNL     1       1.580   8.820  29.274  0.00  0.00    -0.366 N 
HETATM   33  H   UNL     1       2.579   8.973  29.234  0.00  0.00     0.159 HD
HETATM   34  H   UNL     1       1.075   9.079  30.109  0.00  0.00     0.159 HD
ENDBRANCH   4  30
TORSDOF 5
ENDMDL
MODEL 3
REMARK VINA RESULT:    -8.370      3.030      7.439
REMARK INTER + INTRA:         -11.757
REMARK INTER:                 -10.359
REMARK INTRA:                  -1.398
REMARK UNBOUND:                -1.184
REMARK  5 active torsions:
REMARK  status: ('A' for Active; 'I' for Inactive)
REMARK    1  A    between atoms: N_10  and  C_14 
REMARK    2  A    between atoms: C_17  and  C_18 
REMARK       I    between atoms: C_18  and  N_20 
REMARK    3  A    between atoms: C_22  and  N_23 
REMARK    4  A    between atoms: N_23  and  C_24 
REMARK    5  A    between atoms: C_27  and  O_28 
ROOT
HETATM    1  C   UNL     1       3.112   7.064  24.018  0.00  0.00     0.041 A 
HETATM    2  C   UNL     1       3.546   6.448  25.189  0.00  0.00     0.031 A 
HETATM    3  C   UNL     1       3.289   7.035  26.436  0.00  0.00     0.022 A 
HETATM    4  C   UNL     1       2.614   8.262  26.540  0.00  0.00     0.058 A 
HETATM    5  C   UNL     1       2.506   8.331  24.142  0.00  0.00     0.060 A 
HETATM    6  C   UNL     1       2.236   8.952  25.375  0.00  0.00     0.046 A 
ENDROOT
BRANCH   1   7
HETATM    7  N   UNL     1       3.226   6.471  22.706  0.00  0.00    -0.324 N 
HETATM    8  C   UNL     1       4.019   6.834  21.617  0.00  0.00     0.031 A 
HETATM    9  C   UNL     1       5.040   7.928  21.549  0.00  0.00     0.067 C 
HETATM   10  C   UNL     1       3.747   5.977  20.554  0.00  0.00     0.040 A 
HETATM   11  C   UNL     1       6.008   7.743  20.345  0.00  0.00    -0.036 C 
HETATM   12  C   UNL     1       5.224   7.378  19.062  0.00  0.00     0.093 C 
HETATM   13  C   UNL     1       7.052   6.649  20.662  0.00  0.00     0.015 C 
HETATM   14  C   UNL     1       6.760   9.065  20.113  0.00  0.00     0.015 C 
HETATM   15  C   UNL     1       4.377   6.130  19.247  0.00  0.00     0.162 C 
HETATM   16  O   UNL     1       4.198   5.336  18.327  0.00  0.00    -0.292 OA
HETATM   17  C   UNL     1       2.866   4.978  21.014  0.00  0.00    -0.030 A 
HETATM   18  C   UNL     1       2.561   5.315  22.313  0.00  0.00     0.105 A 
HETATM   19  C   UNL     1       2.372   3.790  20.270  0.00  0.00     0.050 C 
ENDBRANCH   1   7
BRANCH   6  20
HETATM   20  N   UNL     1       1.552  10.161  25.408  0.00  0.00    -0.384 N 
HETATM   21  H   UNL     1       1.897  10.866  26.060  0.00  0.00     0.160 HD
BRANCH  20  22
HETATM   22  C   UNL     1       0.411  10.480  24.561  0.00  0.00     0.082 C 
HETATM   23  C   UNL     1       0.388  11.971  24.200  0.00  0.00     0.027 C 
HETATM   24  C   UNL     1      -0.865  12.320  23.401  0.00  0.00     0.034 C 
HETATM   25  C   UNL     1      -2.128  11.946  24.173  0.00  0.00     0.118 C 
HETATM   26  C   UNL     1      -2.129  10.465  24.545  0.00  0.00     0.034 C 
HETATM   27  C   UNL     1      -0.870  10.080  25.312  0.00  0.00     0.027 C 
BRANCH  25  28
HETATM   28  O   UNL     1      -3.280  12.248  23.397  0.00  0.00    -0.396 OA
HETATM   29  H   UNL     1      -3.788  12.940  23.853  0.00  0.00     0.210 HD
ENDBRANCH  25  28
ENDBRANCH  20  22
ENDBRANCH   6  20
BRANCH   4  30
HETATM   30  C   UNL     1       2.298   8.731  27.920  0.00  0.00     0.251 C 
HETATM   31  O   UNL     1       1.154   8.995  28.269  0.00  0.00    -0.268 OA
HETATM   32  N   UNL     1       3.352   8.922  28.773  0.00  0.00    -0.366 N 
HETATM   33  H   UNL     1       4.297   8.917  28.413  0.00  0.00     0.159 HD
HETATM   34  H   UNL     1       3.162   9.379  29.653  0.00  0.00     0.159 HD
ENDBRANCH   4  30
TORSDOF 5
ENDMDL
MODEL 4
REMARK VINA RESULT:    -8.205      2.779      7.654
REMARK INTER + INTRA:         -11.548
REMARK INTER:                 -10.131
REMARK INTRA:                  -1.418
REMARK UNBOUND:                -1.184
REMARK  5 active torsions:
REMARK  status: ('A' for Active; 'I' for Inactive)
REMARK    1  A    between atoms: N_10  and  C_14 
REMARK    2  A    between atoms: C_17  and  C_18 
REMARK       I    between atoms: C_18  and  N_20 
REMARK    3  A    between atoms: C_22  and  N_23 
REMARK    4  A    between atoms: N_23  and  C_24 
REMARK    5  A    between atoms: C_27  and  O_28 
ROOT
HETATM    1  C   UNL     1       3.758   7.381  23.379  0.00  0.00     0.041 A 
HETATM    2  C   UNL     1       3.863   6.354  24.314  0.00  0.00     0.031 A 
HETATM    3  C   UNL     1       3.248   6.471  25.569  0.00  0.00     0.022 A 
HETATM    4  C   UNL     1       2.535   7.627  25.926  0.00  0.00     0.058 A 
HETATM    5  C   UNL     1       3.103   8.561  23.789  0.00  0.00     0.060 A 
HETATM    6  C   UNL     1       2.480   8.717  25.040  0.00  0.00     0.046 A 
ENDROOT
BRANCH   1   7
HETATM    7  N   UNL     1       4.254   7.293  22.026  0.00  0.00    -0.324 N 
HETATM    8  C   UNL     1       3.843   6.485  20.964  0.00  0.00     0.031 A 
HETATM    9  C   UNL     1       2.699   5.520  20.935  0.00  0.00     0.067 C 
HETATM   10  C   UNL     1       4.660   6.735  19.865  0.00  0.00     0.040 A 
HETATM   11  C   UNL     1       2.292   5.147  19.480  0.00  0.00    -0.036 C 
HETATM   12  C   UNL     1       3.543   4.844  18.621  0.00  0.00     0.093 C 
HETATM   13  C   UNL     1       1.474   6.293  18.845  0.00  0.00     0.015 C 
HETATM   14  C   UNL     1       1.401   3.894  19.526  0.00  0.00     0.015 C 
HETATM   15  C   UNL     1       4.522   6.006  18.609  0.00  0.00     0.162 C 
HETATM   16  O   UNL     1       5.189   6.270  17.611  0.00  0.00    -0.292 OA
HETATM   17  C   UNL     1       5.516   7.806  20.192  0.00  0.00    -0.030 A 
HETATM   18  C   UNL     1       5.253   8.109  21.508  0.00  0.00     0.105 A 
HETATM   19  C   UNL     1       6.493   8.490  19.305  0.00  0.00     0.050 C 
ENDBRANCH   1   7
BRANCH   6  20
HETATM   20  N   UNL     1       1.778   9.881  25.326  0.00  0.00    -0.384 N 
HETATM   21  H   UNL     1       2.104  10.429  26.121  0.00  0.00     0.160 HD
BRANCH  20  22
HETATM   22  C   UNL     1       0.643  10.365  24.551  0.00  0.00     0.082 C 
HETATM   23  C   UNL     1       0.612  11.898  24.511  0.00  0.00     0.027 C 
HETATM   24  C   UNL     1      -0.636  12.401  23.789  0.00  0.00     0.034 C 
HETATM   25  C   UNL     1      -1.903  11.865  24.449  0.00  0.00     0.118 C 
HETATM   26  C   UNL     1      -1.897  10.339  24.502  0.00  0.00     0.034 C 
HETATM   27  C   UNL     1      -0.642   9.808  25.186  0.00  0.00     0.027 C 
BRANCH  25  28
HETATM   28  O   UNL     1      -3.049  12.317  23.741  0.00  0.00    -0.396 OA
HETATM   29  H   UNL     1      -3.258  13.221  24.033  0.00  0.00     0.210 HD
ENDBRANCH  25  28
ENDBRANCH  20  22
ENDBRANCH   6  20
BRANCH   4  30
HETATM   30  C   UNL     1       1.829   7.590  27.240  0.00  0.00     0.251 C 
HETATM   31  O   UNL     1       1.933   8.497  28.057  0.00  0.00    -0.268 OA
HETATM   32  N   UNL     1       1.108   6.465  27.532  0.00  0.00    -0.366 N 
HETATM   33  H   UNL     1       1.209   5.639  26.956  0.00  0.00     0.159 HD
HETATM   34  H   UNL     1       0.753   6.369  28.473  0.00  0.00     0.159 HD
ENDBRANCH   4  30
TORSDOF 5
ENDMDL
MODEL 5
REMARK VINA RESULT:    -8.059      2.009      2.696
REMARK INTER + INTRA:         -11.364
REMARK INTER:                 -10.207
REMARK INTRA:                  -1.157
REMARK UNBOUND:                -1.184
REMARK  5 active torsions:
REMARK  status: ('A' for Active; 'I' for Inactive)
REMARK    1  A    between atoms: N_10  and  C_14 
REMARK    2  A    between atoms: C_17  and  C_18 
REMARK       I    between atoms: C_18  and  N_20 
REMARK    3  A    between atoms: C_22  and  N_23 
REMARK    4  A    between atoms: N_23  and  C_24 
REMARK    5  A    between atoms: C_27  and  O_28 
ROOT
HETATM    1  C   UNL     1       3.232   7.591  23.243  0.00  0.00     0.041 A 
HETATM    2  C   UNL     1       3.975   8.739  22.976  0.00  0.00     0.031 A 
HETATM    3  C   UNL     1       4.703   8.851  21.783  0.00  0.00     0.022 A 
HETATM    4  C   UNL     1       4.724   7.809  20.841  0.00  0.00     0.058 A 
HETATM    5  C   UNL     1       3.330   6.530  22.319  0.00  0.00     0.060 A 
HETATM    6  C   UNL     1       4.054   6.604  21.116  0.00  0.00     0.046 A 
ENDROOT
BRANCH   1   7
HETATM    7  N   UNL     1       2.361   7.444  24.384  0.00  0.00    -0.324 N 
HETATM    8  C   UNL     1       1.515   8.368  25.001  0.00  0.00     0.031 A 
HETATM    9  C   UNL     1       1.234   9.777  24.580  0.00  0.00     0.067 C 
HETATM   10  C   UNL     1       0.907   7.762  26.098  0.00  0.00     0.040 A 
HETATM   11  C   UNL     1      -0.064  10.330  25.237  0.00  0.00    -0.036 C 
HETATM   12  C   UNL     1      -0.107   9.981  26.744  0.00  0.00     0.093 C 
HETATM   13  C   UNL     1      -1.309   9.760  24.522  0.00  0.00     0.015 C 
HETATM   14  C   UNL     1      -0.081  11.860  25.077  0.00  0.00     0.015 C 
HETATM   15  C   UNL     1       0.004   8.485  26.987  0.00  0.00     0.162 C 
HETATM   16  O   UNL     1      -0.592   7.940  27.913  0.00  0.00    -0.292 OA
HETATM   17  C   UNL     1       1.271   6.400  26.101  0.00  0.00    -0.030 A 
HETATM   18  C   UNL     1       2.160   6.246  25.062  0.00  0.00     0.105 A 
HETATM   19  C   UNL     1       0.791   5.335  27.019  0.00  0.00     0.050 C 
ENDBRANCH   1   7
BRANCH   6  20
HETATM   20  N   UNL     1       4.022   5.543  20.220  0.00  0.00    -0.384 N 
HETATM   21  H   UNL     1       4.879   4.999  20.122  0.00  0.00     0.160 HD
BRANCH  20  22
HETATM   22  C   UNL     1       2.848   5.156  19.450  0.00  0.00     0.082 C 
HETATM   23  C   UNL     1       1.987   6.377  19.099  0.00  0.00     0.027 C 
HETATM   24  C   UNL     1       0.705   5.955  18.386  0.00  0.00     0.034 C 
HETATM   25  C   UNL     1      -0.096   4.973  19.235  0.00  0.00     0.118 C 
HETATM   26  C   UNL     1       0.739   3.747  19.598  0.00  0.00     0.034 C 
HETATM   27  C   UNL     1       2.044   4.141  20.281  0.00  0.00     0.027 C 
BRANCH  25  28
HETATM   28  O   UNL     1      -1.266   4.567  18.538  0.00  0.00    -0.396 OA
HETATM   29  H   UNL     1      -1.036   3.828  17.949  0.00  0.00     0.210 HD
ENDBRANCH  25  28
ENDBRANCH  20  22
ENDBRANCH   6  20
BRANCH   4  30
HETATM   30  C   UNL     1       5.438   8.087  19.561  0.00  0.00     0.251 C 
HETATM   31  O   UNL     1       4.843   8.194  18.496  0.00  0.00    -0.268 OA
HETATM   32  N   UNL     1       6.805   8.153  19.608  0.00  0.00    -0.366 N 
HETATM   33  H   UNL     1       7.294   7.846  20.438  0.00  0.00     0.159 HD
HETATM   34  H   UNL     1       7.300   8.191  18.729  0.00  0.00     0.159 HD
ENDBRANCH   4  30
TORSDOF 5
ENDMDL
MODEL 6
REMARK VINA RESULT:    -8.038      2.440      2.767
REMARK INTER + INTRA:         -11.337
REMARK INTER:                 -10.194
REMARK INTRA:                  -1.143
REMARK UNBOUND:                -1.184
REMARK  5 active torsions:
REMARK  status: ('A' for Active; 'I' for Inactive)
REMARK    1  A    between atoms: N_10  and  C_14 
REMARK    2  A    between atoms: C_17  and  C_18 
REMARK       I    between atoms: C_18  and  N_20 
REMARK    3  A    between atoms: C_22  and  N_23 
REMARK    4  A    between atoms: N_23  and  C_24 
REMARK    5  A    between atoms: C_27  and  O_28 
ROOT
HETATM    1  C   UNL     1       3.826   7.676  23.336  0.00  0.00     0.041 A 
HETATM    2  C   UNL     1       4.288   8.863  22.774  0.00  0.00     0.031 A 
HETATM    3  C   UNL     1       4.356   9.009  21.381  0.00  0.00     0.022 A 
HETATM    4  C   UNL     1       3.987   7.963  20.520  0.00  0.00     0.058 A 
HETATM    5  C   UNL     1       3.535   6.615  22.454  0.00  0.00     0.060 A 
HETATM    6  C   UNL     1       3.596   6.723  21.053  0.00  0.00     0.046 A 
ENDROOT
BRANCH   1   7
HETATM    7  N   UNL     1       3.610   7.486  24.751  0.00  0.00    -0.324 N 
HETATM    8  C   UNL     1       2.574   7.930  25.574  0.00  0.00     0.031 A 
HETATM    9  C   UNL     1       1.344   8.685  25.175  0.00  0.00     0.067 C 
HETATM   10  C   UNL     1       2.831   7.526  26.882  0.00  0.00     0.040 A 
HETATM   11  C   UNL     1       0.240   8.614  26.268  0.00  0.00    -0.036 C 
HETATM   12  C   UNL     1       0.840   8.861  27.672  0.00  0.00     0.093 C 
HETATM   13  C   UNL     1      -0.467   7.241  26.225  0.00  0.00     0.015 C 
HETATM   14  C   UNL     1      -0.811   9.699  25.975  0.00  0.00     0.015 C 
HETATM   15  C   UNL     1       1.958   7.884  27.995  0.00  0.00     0.162 C 
HETATM   16  O   UNL     1       2.137   7.471  29.138  0.00  0.00    -0.292 OA
HETATM   17  C   UNL     1       3.976   6.704  26.867  0.00  0.00    -0.030 A 
HETATM   18  C   UNL     1       4.428   6.713  25.568  0.00  0.00     0.105 A 
HETATM   19  C   UNL     1       4.574   5.961  28.007  0.00  0.00     0.050 C 
ENDBRANCH   1   7
BRANCH   6  20
HETATM   20  N   UNL     1       3.203   5.654  20.257  0.00  0.00    -0.384 N 
HETATM   21  H   UNL     1       3.945   5.125  19.800  0.00  0.00     0.160 HD
BRANCH  20  22
HETATM   22  C   UNL     1       1.819   5.241  20.066  0.00  0.00     0.082 C 
HETATM   23  C   UNL     1       1.711   3.717  19.920  0.00  0.00     0.027 C 
HETATM   24  C   UNL     1       0.275   3.299  19.614  0.00  0.00     0.034 C 
HETATM   25  C   UNL     1      -0.239   3.986  18.352  0.00  0.00     0.118 C 
HETATM   26  C   UNL     1      -0.141   5.506  18.472  0.00  0.00     0.034 C 
HETATM   27  C   UNL     1       1.277   5.950  18.813  0.00  0.00     0.027 C 
BRANCH  25  28
HETATM   28  O   UNL     1      -1.587   3.609  18.106  0.00  0.00    -0.396 OA
HETATM   29  H   UNL     1      -2.104   3.764  18.915  0.00  0.00     0.210 HD
ENDBRANCH  25  28
ENDBRANCH  20  22
ENDBRANCH   6  20
BRANCH   4  30
HETATM   30  C   UNL     1       3.992   8.273  19.061  0.00  0.00     0.251 C 
HETATM   31  O   UNL     1       4.973   8.066  18.357  0.00  0.00    -0.268 OA
HETATM   32  N   UNL     1       2.873   8.867  18.543  0.00  0.00    -0.366 N 
HETATM   33  H   UNL     1       2.165   9.234  19.165  0.00  0.00     0.159 HD
HETATM   34  H   UNL     1       2.925   9.214  17.596  0.00  0.00     0.159 HD
ENDBRANCH   4  30
TORSDOF 5
ENDMDL
MODEL 7
REMARK VINA RESULT:    -7.799      1.447      3.413
REMARK INTER + INTRA:         -11.036
REMARK INTER:                  -9.788
REMARK INTRA:                  -1.247
REMARK UNBOUND:                -1.184
REMARK  5 active torsions:
REMARK  status: ('A' for Active; 'I' for Inactive)
REMARK    1  A    between atoms: N_10  and  C_14 
REMARK    2  A    between atoms: C_17  and  C_18 
REMARK       I    between atoms: C_18  and  N_20 
REMARK    3  A    between atoms: C_22  and  N_23 
REMARK    4  A    between atoms: N_23  and  C_24 
REMARK    5  A    between atoms: C_27  and  O_28 
ROOT
HETATM    1  C   UNL     1       4.575   5.990  22.784  0.00  0.00     0.041 A 
HETATM    2  C   UNL     1       5.958   5.982  22.619  0.00  0.00     0.031 A 
HETATM    3  C   UNL     1       6.549   6.679  21.556  0.00  0.00     0.022 A 
HETATM    4  C   UNL     1       5.770   7.379  20.620  0.00  0.00     0.058 A 
HETATM    5  C   UNL     1       3.810   6.634  21.789  0.00  0.00     0.060 A 
HETATM    6  C   UNL     1       4.368   7.338  20.707  0.00  0.00     0.046 A 
ENDROOT
BRANCH   1   7
HETATM    7  N   UNL     1       3.896   5.403  23.915  0.00  0.00    -0.324 N 
HETATM    8  C   UNL     1       4.072   4.163  24.530  0.00  0.00     0.031 A 
HETATM    9  C   UNL     1       5.092   3.115  24.208  0.00  0.00     0.067 C 
HETATM   10  C   UNL     1       3.147   4.036  25.563  0.00  0.00     0.040 A 
HETATM   11  C   UNL     1       5.259   2.092  25.368  0.00  0.00    -0.036 C 
HETATM   12  C   UNL     1       3.880   1.645  25.908  0.00  0.00     0.093 C 
HETATM   13  C   UNL     1       6.103   2.708  26.506  0.00  0.00     0.015 C 
HETATM   14  C   UNL     1       6.009   0.860  24.832  0.00  0.00     0.015 C 
HETATM   15  C   UNL     1       3.038   2.824  26.368  0.00  0.00     0.162 C 
HETATM   16  O   UNL     1       2.275   2.730  27.327  0.00  0.00    -0.292 OA
HETATM   17  C   UNL     1       2.463   5.261  25.689  0.00  0.00    -0.030 A 
HETATM   18  C   UNL     1       2.929   6.059  24.669  0.00  0.00     0.105 A 
HETATM   19  C   UNL     1       1.455   5.637  26.715  0.00  0.00     0.050 C 
ENDBRANCH   1   7
BRANCH   6  20
HETATM   20  N   UNL     1       3.541   8.021  19.824  0.00  0.00    -0.384 N 
HETATM   21  H   UNL     1       3.572   9.040  19.861  0.00  0.00     0.160 HD
BRANCH  20  22
HETATM   22  C   UNL     1       2.674   7.375  18.848  0.00  0.00     0.082 C 
HETATM   23  C   UNL     1       3.390   6.210  18.154  0.00  0.00     0.027 C 
HETATM   24  C   UNL     1       2.515   5.604  17.059  0.00  0.00     0.034 C 
HETATM   25  C   UNL     1       2.112   6.661  16.033  0.00  0.00     0.118 C 
HETATM   26  C   UNL     1       1.396   7.834  16.700  0.00  0.00     0.034 C 
HETATM   27  C   UNL     1       2.234   8.435  17.823  0.00  0.00     0.027 C 
BRANCH  25  28
HETATM   28  O   UNL     1       1.271   6.084  15.044  0.00  0.00    -0.396 OA
HETATM   29  H   UNL     1       0.484   5.717  15.482  0.00  0.00     0.210 HD
ENDBRANCH  25  28
ENDBRANCH  20  22
ENDBRANCH   6  20
BRANCH   4  30
HETATM   30  C   UNL     1       6.514   8.176  19.601  0.00  0.00     0.251 C 
HETATM   31  O   UNL     1       6.015   8.482  18.526  0.00  0.00    -0.268 OA
HETATM   32  N   UNL     1       7.814   8.498  19.886  0.00  0.00    -0.366 N 
HETATM   33  H   UNL     1       8.282   8.056  20.666  0.00  0.00     0.159 HD
HETATM   34  H   UNL     1       8.367   8.904  19.145  0.00  0.00     0.159 HD
ENDBRANCH   4  30
TORSDOF 5
ENDMDL
MODEL 8
REMARK VINA RESULT:    -7.701      2.207      8.212
REMARK INTER + INTRA:         -10.911
REMARK INTER:                  -9.516
REMARK INTRA:                  -1.395
REMARK UNBOUND:                -1.184
REMARK  5 active torsions:
REMARK  status: ('A' for Active; 'I' for Inactive)
REMARK    1  A    between atoms: N_10  and  C_14 
REMARK    2  A    between atoms: C_17  and  C_18 
REMARK       I    between atoms: C_18  and  N_20 
REMARK    3  A    between atoms: C_22  and  N_23 
REMARK    4  A    between atoms: N_23  and  C_24 
REMARK    5  A    between atoms: C_27  and  O_28 
ROOT
HETATM    1  C   UNL     1       3.570   6.150  23.591  0.00  0.00     0.041 A 
HETATM    2  C   UNL     1       4.141   5.246  24.484  0.00  0.00     0.031 A 
HETATM    3  C   UNL     1       3.492   4.933  25.687  0.00  0.00     0.022 A 
HETATM    4  C   UNL     1       2.272   5.534  26.035  0.00  0.00     0.058 A 
HETATM    5  C   UNL     1       2.385   6.797  23.997  0.00  0.00     0.060 A 
HETATM    6  C   UNL     1       1.710   6.512  25.197  0.00  0.00     0.046 A 
ENDROOT
BRANCH   1   7
HETATM    7  N   UNL     1       4.108   6.435  22.282  0.00  0.00    -0.324 N 
HETATM    8  C   UNL     1       3.749   5.934  21.029  0.00  0.00     0.031 A 
HETATM    9  C   UNL     1       2.632   4.992  20.703  0.00  0.00     0.067 C 
HETATM   10  C   UNL     1       4.590   6.483  20.065  0.00  0.00     0.040 A 
HETATM   11  C   UNL     1       2.277   5.015  19.189  0.00  0.00    -0.036 C 
HETATM   12  C   UNL     1       3.559   4.975  18.324  0.00  0.00     0.093 C 
HETATM   13  C   UNL     1       1.448   6.275  18.854  0.00  0.00     0.015 C 
HETATM   14  C   UNL     1       1.418   3.780  18.867  0.00  0.00     0.015 C 
HETATM   15  C   UNL     1       4.507   6.115  18.656  0.00  0.00     0.162 C 
HETATM   16  O   UNL     1       5.196   6.649  17.788  0.00  0.00    -0.292 OA
HETATM   17  C   UNL     1       5.408   7.443  20.695  0.00  0.00    -0.030 A 
HETATM   18  C   UNL     1       5.100   7.378  22.035  0.00  0.00     0.105 A 
HETATM   19  C   UNL     1       6.391   8.357  20.058  0.00  0.00     0.050 C 
ENDBRANCH   1   7
BRANCH   6  20
HETATM   20  N   UNL     1       0.498   7.132  25.476  0.00  0.00    -0.384 N 
HETATM   21  H   UNL     1      -0.343   6.669  25.133  0.00  0.00     0.160 HD
BRANCH  20  22
HETATM   22  C   UNL     1       0.366   8.366  26.239  0.00  0.00     0.082 C 
HETATM   23  C   UNL     1      -0.310   8.111  27.593  0.00  0.00     0.027 C 
HETATM   24  C   UNL     1      -0.542   9.421  28.342  0.00  0.00     0.034 C 
HETATM   25  C   UNL     1      -1.380  10.387  27.509  0.00  0.00     0.118 C 
HETATM   26  C   UNL     1      -0.729  10.657  26.154  0.00  0.00     0.034 C 
HETATM   27  C   UNL     1      -0.452   9.362  25.399  0.00  0.00     0.027 C 
BRANCH  25  28
HETATM   28  O   UNL     1      -1.555  11.610  28.211  0.00  0.00    -0.396 OA
HETATM   29  H   UNL     1      -2.172  12.170  27.710  0.00  0.00     0.210 HD
ENDBRANCH  25  28
ENDBRANCH  20  22
ENDBRANCH   6  20
BRANCH   4  30
HETATM   30  C   UNL     1       1.621   5.038  27.283  0.00  0.00     0.251 C 
HETATM   31  O   UNL     1       0.503   4.537  27.276  0.00  0.00    -0.268 OA
HETATM   32  N   UNL     1       2.295   5.226  28.459  0.00  0.00    -0.366 N 
HETATM   33  H   UNL     1       3.104   5.834  28.482  0.00  0.00     0.159 HD
HETATM   34  H   UNL     1       1.801   5.031  29.317  0.00  0.00     0.159 HD
ENDBRANCH   4  30
TORSDOF 5
ENDMDL
MODEL 9
REMARK VINA RESULT:    -7.685      2.093      3.427
REMARK INTER + INTRA:         -10.891
REMARK INTER:                  -9.706
REMARK INTRA:                  -1.184
REMARK UNBOUND:                -1.184
REMARK  5 active torsions:
REMARK  status: ('A' for Active; 'I' for Inactive)
REMARK    1  A    between atoms: N_10  and  C_14 
REMARK    2  A    between atoms: C_17  and  C_18 
REMARK       I    between atoms: C_18  and  N_20 
REMARK    3  A    between atoms: C_22  and  N_23 
REMARK    4  A    between atoms: N_23  and  C_24 
REMARK    5  A    between atoms: C_27  and  O_28 
ROOT
HETATM    1  C   UNL     1       3.319   8.060  23.298  0.00  0.00     0.041 A 
HETATM    2  C   UNL     1       4.057   9.169  22.891  0.00  0.00     0.031 A 
HETATM    3  C   UNL     1       4.773   9.141  21.685  0.00  0.00     0.022 A 
HETATM    4  C   UNL     1       4.787   7.996  20.872  0.00  0.00     0.058 A 
HETATM    5  C   UNL     1       3.412   6.897  22.505  0.00  0.00     0.060 A 
HETATM    6  C   UNL     1       4.123   6.830  21.294  0.00  0.00     0.046 A 
ENDROOT
BRANCH   1   7
HETATM    7  N   UNL     1       2.460   8.046  24.457  0.00  0.00    -0.324 N 
HETATM    8  C   UNL     1       2.493   7.241  25.597  0.00  0.00     0.031 A 
HETATM    9  C   UNL     1       3.504   6.195  25.953  0.00  0.00     0.067 C 
HETATM   10  C   UNL     1       1.424   7.581  26.422  0.00  0.00     0.040 A 
HETATM   11  C   UNL     1       3.458   5.835  27.465  0.00  0.00    -0.036 C 
HETATM   12  C   UNL     1       1.998   5.649  27.941  0.00  0.00     0.093 C 
HETATM   13  C   UNL     1       4.153   6.935  28.298  0.00  0.00     0.015 C 
HETATM   14  C   UNL     1       4.225   4.519  27.680  0.00  0.00     0.015 C 
HETATM   15  C   UNL     1       1.148   6.880  27.671  0.00  0.00     0.162 C 
HETATM   16  O   UNL     1       0.252   7.220  28.440  0.00  0.00    -0.292 OA
HETATM   17  C   UNL     1       0.780   8.703  25.861  0.00  0.00    -0.030 A 
HETATM   18  C   UNL     1       1.423   8.948  24.670  0.00  0.00     0.105 A 
HETATM   19  C   UNL     1      -0.349   9.482  26.434  0.00  0.00     0.050 C 
ENDBRANCH   1   7
BRANCH   6  20
HETATM   20  N   UNL     1       4.086   5.671  20.529  0.00  0.00    -0.384 N 
HETATM   21  H   UNL     1       4.904   5.065  20.574  0.00  0.00     0.160 HD
BRANCH  20  22
HETATM   22  C   UNL     1       2.953   5.270  19.706  0.00  0.00     0.082 C 
HETATM   23  C   UNL     1       2.156   6.489  19.226  0.00  0.00     0.027 C 
HETATM   24  C   UNL     1       0.911   6.059  18.453  0.00  0.00     0.034 C 
HETATM   25  C   UNL     1       0.025   5.152  19.303  0.00  0.00     0.118 C 
HETATM   26  C   UNL     1       0.796   3.929  19.794  0.00  0.00     0.034 C 
HETATM   27  C   UNL     1       2.065   4.329  20.539  0.00  0.00     0.027 C 
BRANCH  25  28
HETATM   28  O   UNL     1      -1.108   4.737  18.554  0.00  0.00    -0.396 OA
HETATM   29  H   UNL     1      -1.473   3.934  18.963  0.00  0.00     0.210 HD
ENDBRANCH  25  28
ENDBRANCH  20  22
ENDBRANCH   6  20
BRANCH   4  30
HETATM   30  C   UNL     1       5.488   8.122  19.561  0.00  0.00     0.251 C 
HETATM   31  O   UNL     1       4.877   8.150  18.499  0.00  0.00    -0.268 OA
HETATM   32  N   UNL     1       6.856   8.138  19.582  0.00  0.00    -0.366 N 
HETATM   33  H   UNL     1       7.349   7.892  20.430  0.00  0.00     0.159 HD
HETATM   34  H   UNL     1       7.337   8.073  18.696  0.00  0.00     0.159 HD
ENDBRANCH   4  30
TORSDOF 5
ENDMDL
