MODEL 1
REMARK VINA RESULT:    -7.308      0.000      0.000
REMARK INTER + INTRA:         -10.442
REMARK INTER:                  -9.668
REMARK INTRA:                  -0.774
REMARK UNBOUND:                -0.784
REMARK  6 active torsions:
REMARK  status: ('A' for Active; 'I' for Inactive)
REMARK    1  A    between atoms: O_2  and  C_3 
REMARK    2  A    between atoms: C_3  and  C_4 
REMARK    3  A    between atoms: C_11  and  C_15 
REMARK    4  A    between atoms: C_12  and  O_14 
REMARK       I    between atoms: C_15  and  N_17 
REMARK    5  A    between atoms: N_17  and  C_19 
REMARK    6  A    between atoms: C_22  and  N_25 
ROOT
HETATM    1  C   UNL     1       6.242  10.926  19.297  0.00  0.00     0.260 C 
HETATM    2  O   UNL     1       7.289  11.379  18.824  0.00  0.00    -0.267 OA
HETATM    3  N   UNL     1       5.873  11.109  20.651  0.00  0.00    -0.318 N 
HETATM    4  C   UNL     1       4.742  10.448  21.307  0.00  0.00     0.159 C 
ENDROOT
BRANCH   1   5
HETATM    5  C   UNL     1       5.413  10.175  18.304  0.00  0.00     0.066 A 
HETATM    6  C   UNL     1       5.586   8.769  18.326  0.00  0.00     0.035 A 
HETATM    7  C   UNL     1       4.783   7.936  17.515  0.00  0.00     0.022 A 
HETATM    8  C   UNL     1       4.594   6.535  17.334  0.00  0.00     0.090 A 
HETATM    9  C   UNL     1       3.878   8.534  16.648  0.00  0.00     0.065 A 
HETATM   10  N   UNL     1       3.698   6.281  16.367  0.00  0.00    -0.176 NA
HETATM   11  N   UNL     1       3.275   7.499  15.989  0.00  0.00    -0.277 N 
HETATM   12  H   UNL     1       2.560   7.554  15.274  0.00  0.00     0.189 HD
HETATM   13  C   UNL     1       3.676   9.914  16.590  0.00  0.00     0.069 A 
HETATM   14  C   UNL     1       4.406  10.707  17.489  0.00  0.00     0.083 A 
BRANCH   8  15
HETATM   15  C   UNL     1       5.245   5.411  18.081  0.00  0.00     0.228 C 
BRANCH  15  16
HETATM   16  O   UNL     1       4.876   5.402  19.467  0.00  0.00    -0.390 OA
HETATM   17  C   UNL     1       6.010   5.567  20.308  0.00  0.00     0.201 C 
ENDBRANCH  15  16
ENDBRANCH   8  15
BRANCH  14  18
HETATM   18  O   UNL     1       3.981  12.006  17.560  0.00  0.00    -0.360 OA
HETATM   19  H   UNL     1       3.650  12.148  18.467  0.00  0.00     0.217 HD
ENDBRANCH  14  18
ENDBRANCH   1   5
BRANCH   3  20
HETATM   20  C   UNL     1       6.664  11.983  21.488  0.00  0.00     0.037 A 
HETATM   21  C   UNL     1       6.256  13.293  21.766  0.00  0.00     0.032 A 
HETATM   22  C   UNL     1       7.024  14.151  22.572  0.00  0.00     0.031 A 
HETATM   23  C   UNL     1       8.236  13.746  23.133  0.00  0.00     0.030 A 
HETATM   24  C   UNL     1       8.623  12.422  22.877  0.00  0.00     0.031 A 
HETATM   25  C   UNL     1       7.852  11.551  22.085  0.00  0.00     0.032 A 
BRANCH  23  26
HETATM   26  N   UNL     1       8.997  14.560  23.947  0.00  0.00    -0.377 N 
HETATM   27  C   UNL     1       8.596  14.925  25.315  0.00  0.00     0.149 C 
HETATM   28  C   UNL     1       9.867  15.018  26.181  0.00  0.00     0.187 C 
HETATM   29  O   UNL     1      10.827  15.944  25.637  0.00  0.00    -0.388 OA
HETATM   30  C   UNL     1      11.195  15.559  24.300  0.00  0.00     0.187 C 
HETATM   31  C   UNL     1       9.970  15.509  23.374  0.00  0.00     0.149 C 
ENDBRANCH  23  26
ENDBRANCH   3  20
TORSDOF 6
ENDMDL
MODEL 2
REMARK VINA RESULT:    -7.254      5.641      9.737
REMARK INTER + INTRA:         -10.371
REMARK INTER:                  -9.905
REMARK INTRA:                  -0.466
REMARK UNBOUND:                -0.784
REMARK  6 active torsions:
REMARK  status: ('A' for Active; 'I' for Inactive)
REMARK    1  A    between atoms: O_2  and  C_3 
REMARK    2  A    between atoms: C_3  and  C_4 
REMARK    3  A    between atoms: C_11  and  C_15 
REMARK    4  A    between atoms: C_12  and  O_14 
REMARK       I    between atoms: C_15  and  N_17 
REMARK    5  A    between atoms: N_17  and  C_19 
REMARK    6  A    between atoms: C_22  and  N_25 
ROOT
HETATM    1  C   UNL     1       7.155  13.825  24.536  0.00  0.00     0.260 C 
HETATM    2  O   UNL     1       6.656  12.818  25.047  0.00  0.00    -0.267 OA
HETATM    3  N   UNL     1       6.457  14.641  23.614  0.00  0.00    -0.318 N 
HETATM    4  C   UNL     1       7.054  15.735  22.845  0.00  0.00     0.159 C 
ENDROOT
BRANCH   1   5
HETATM    5  C   UNL     1       8.557  14.092  24.987  0.00  0.00     0.066 A 
HETATM    6  C   UNL     1       9.561  13.720  24.059  0.00  0.00     0.035 A 
HETATM    7  C   UNL     1      10.918  14.018  24.315  0.00  0.00     0.022 A 
HETATM    8  C   UNL     1      12.155  13.902  23.618  0.00  0.00     0.090 A 
HETATM    9  C   UNL     1      11.245  14.615  25.526  0.00  0.00     0.065 A 
HETATM   10  N   UNL     1      13.186  14.318  24.372  0.00  0.00    -0.176 NA
HETATM   11  N   UNL     1      12.605  14.755  25.501  0.00  0.00    -0.277 N 
HETATM   12  H   UNL     1      13.199  15.149  26.221  0.00  0.00     0.189 HD
HETATM   13  C   UNL     1      10.290  14.995  26.471  0.00  0.00     0.069 A 
HETATM   14  C   UNL     1       8.942  14.789  26.137  0.00  0.00     0.083 A 
BRANCH   8  15
HETATM   15  C   UNL     1      12.386  13.410  22.221  0.00  0.00     0.228 C 
BRANCH  15  16
HETATM   16  O   UNL     1      11.162  13.296  21.483  0.00  0.00    -0.390 OA
HETATM   17  C   UNL     1      10.927  11.956  21.068  0.00  0.00     0.201 C 
ENDBRANCH  15  16
ENDBRANCH   8  15
BRANCH  14  18
HETATM   18  O   UNL     1       8.059  15.410  26.979  0.00  0.00    -0.360 OA
HETATM   19  H   UNL     1       8.433  16.286  27.189  0.00  0.00     0.217 HD
ENDBRANCH  14  18
ENDBRANCH   1   5
BRANCH   3  20
HETATM   20  C   UNL     1       5.055  14.388  23.366  0.00  0.00     0.037 A 
HETATM   21  C   UNL     1       4.640  13.398  22.468  0.00  0.00     0.032 A 
HETATM   22  C   UNL     1       3.280  13.152  22.216  0.00  0.00     0.031 A 
HETATM   23  C   UNL     1       2.270  13.886  22.842  0.00  0.00     0.030 A 
HETATM   24  C   UNL     1       2.693  14.854  23.764  0.00  0.00     0.031 A 
HETATM   25  C   UNL     1       4.052  15.096  24.035  0.00  0.00     0.032 A 
BRANCH  23  26
HETATM   26  N   UNL     1       0.927  13.648  22.630  0.00  0.00    -0.377 N 
HETATM   27  C   UNL     1       0.269  13.871  21.333  0.00  0.00     0.149 C 
HETATM   28  C   UNL     1      -0.811  12.788  21.148  0.00  0.00     0.187 C 
HETATM   29  O   UNL     1      -1.756  12.775  22.235  0.00  0.00    -0.388 OA
HETATM   30  C   UNL     1      -1.080  12.556  23.487  0.00  0.00     0.187 C 
HETATM   31  C   UNL     1      -0.030  13.646  23.752  0.00  0.00     0.149 C 
ENDBRANCH  23  26
ENDBRANCH   3  20
TORSDOF 6
ENDMDL
MODEL 3
REMARK VINA RESULT:    -6.994      5.258      9.895
REMARK INTER + INTRA:         -10.027
REMARK INTER:                  -9.682
REMARK INTRA:                  -0.345
REMARK UNBOUND:                -0.784
REMARK  6 active torsions:
REMARK  status: ('A' for Active; 'I' for Inactive)
REMARK    1  A    between atoms: O_2  and  C_3 
REMARK    2  A    between atoms: C_3  and  C_4 
REMARK    3  A    between atoms: C_11  and  C_15 
REMARK    4  A    between atoms: C_12  and  O_14 
REMARK       I    between atoms: C_15  and  N_17 
REMARK    5  A    between atoms: N_17  and  C_19 
REMARK    6  A    between atoms: C_22  and  N_25 
ROOT
HETATM    1  C   UNL     1       7.310  14.917  23.265  0.00  0.00     0.260 C 
HETATM    2  O   UNL     1       6.674  15.973  23.342  0.00  0.00    -0.267 OA
HETATM    3  N   UNL     1       6.682  13.654  23.148  0.00  0.00    -0.318 N 
HETATM    4  C   UNL     1       7.372  12.365  23.234  0.00  0.00     0.159 C 
ENDROOT
BRANCH   1   5
HETATM    5  C   UNL     1       8.793  15.108  23.307  0.00  0.00     0.066 A 
HETATM    6  C   UNL     1       9.354  15.128  24.607  0.00  0.00     0.035 A 
HETATM    7  C   UNL     1      10.754  15.192  24.782  0.00  0.00     0.022 A 
HETATM    8  C   UNL     1      11.667  15.136  25.874  0.00  0.00     0.090 A 
HETATM    9  C   UNL     1      11.556  15.306  23.653  0.00  0.00     0.065 A 
HETATM   10  N   UNL     1      12.937  15.289  25.464  0.00  0.00    -0.176 NA
HETATM   11  N   UNL     1      12.836  15.371  24.127  0.00  0.00    -0.277 N 
HETATM   12  H   UNL     1      13.690  15.464  23.589  0.00  0.00     0.189 HD
HETATM   13  C   UNL     1      11.047  15.294  22.353  0.00  0.00     0.069 A 
HETATM   14  C   UNL     1       9.662  15.115  22.209  0.00  0.00     0.083 A 
BRANCH   8  15
HETATM   15  C   UNL     1      11.360  14.922  27.326  0.00  0.00     0.228 C 
BRANCH  15  16
HETATM   16  O   UNL     1      11.940  13.709  27.824  0.00  0.00    -0.390 OA
HETATM   17  C   UNL     1      11.480  12.576  27.100  0.00  0.00     0.201 C 
ENDBRANCH  15  16
ENDBRANCH   8  15
BRANCH  14  18
HETATM   18  O   UNL     1       9.264  14.855  20.925  0.00  0.00    -0.360 OA
HETATM   19  H   UNL     1       8.502  15.437  20.741  0.00  0.00     0.217 HD
ENDBRANCH  14  18
ENDBRANCH   1   5
BRANCH   3  20
HETATM   20  C   UNL     1       5.250  13.591  22.957  0.00  0.00     0.037 A 
HETATM   21  C   UNL     1       4.681  12.772  21.974  0.00  0.00     0.032 A 
HETATM   22  C   UNL     1       3.290  12.712  21.778  0.00  0.00     0.031 A 
HETATM   23  C   UNL     1       2.404  13.469  22.547  0.00  0.00     0.030 A 
HETATM   24  C   UNL     1       2.980  14.262  23.550  0.00  0.00     0.031 A 
HETATM   25  C   UNL     1       4.369  14.316  23.765  0.00  0.00     0.032 A 
BRANCH  23  26
HETATM   26  N   UNL     1       1.034  13.410  22.390  0.00  0.00    -0.377 N 
HETATM   27  C   UNL     1       0.355  13.775  21.137  0.00  0.00     0.149 C 
HETATM   28  C   UNL     1      -0.860  12.845  20.957  0.00  0.00     0.187 C 
HETATM   29  O   UNL     1      -1.752  12.894  22.087  0.00  0.00    -0.388 OA
HETATM   30  C   UNL     1      -1.056  12.532  23.293  0.00  0.00     0.187 C 
HETATM   31  C   UNL     1       0.133  13.469  23.556  0.00  0.00     0.149 C 
ENDBRANCH  23  26
ENDBRANCH   3  20
TORSDOF 6
ENDMDL
MODEL 4
REMARK VINA RESULT:    -6.948      3.202     10.081
REMARK INTER + INTRA:          -9.966
REMARK INTER:                  -9.055
REMARK INTRA:                  -0.911
REMARK UNBOUND:                -0.784
REMARK  6 active torsions:
REMARK  status: ('A' for Active; 'I' for Inactive)
REMARK    1  A    between atoms: O_2  and  C_3 
REMARK    2  A    between atoms: C_3  and  C_4 
REMARK    3  A    between atoms: C_11  and  C_15 
REMARK    4  A    between atoms: C_12  and  O_14 
REMARK       I    between atoms: C_15  and  N_17 
REMARK    5  A    between atoms: N_17  and  C_19 
REMARK    6  A    between atoms: C_22  and  N_25 
ROOT
HETATM    1  C   UNL     1       5.130  10.270  19.381  0.00  0.00     0.260 C 
HETATM    2  O   UNL     1       5.636   9.210  19.765  0.00  0.00    -0.267 OA
HETATM    3  N   UNL     1       4.358  10.364  18.199  0.00  0.00    -0.318 N 
HETATM    4  C   UNL     1       3.889  11.617  17.603  0.00  0.00     0.159 C 
ENDROOT
BRANCH   1   5
HETATM    5  C   UNL     1       5.412  11.428  20.285  0.00  0.00     0.066 A 
HETATM    6  C   UNL     1       4.291  11.906  21.008  0.00  0.00     0.035 A 
HETATM    7  C   UNL     1       4.445  12.923  21.975  0.00  0.00     0.022 A 
HETATM    8  C   UNL     1       3.618  13.575  22.936  0.00  0.00     0.090 A 
HETATM    9  C   UNL     1       5.702  13.489  22.145  0.00  0.00     0.065 A 
HETATM   10  N   UNL     1       4.290  14.532  23.595  0.00  0.00    -0.176 NA
HETATM   11  N   UNL     1       5.539  14.443  23.110  0.00  0.00    -0.277 N 
HETATM   12  H   UNL     1       6.244  15.064  23.490  0.00  0.00     0.189 HD
HETATM   13  C   UNL     1       6.833  13.053  21.452  0.00  0.00     0.069 A 
HETATM   14  C   UNL     1       6.670  11.964  20.581  0.00  0.00     0.083 A 
BRANCH   8  15
HETATM   15  C   UNL     1       2.181  13.296  23.260  0.00  0.00     0.228 C 
BRANCH  15  16
HETATM   16  O   UNL     1       1.290  14.131  22.509  0.00  0.00    -0.390 OA
HETATM   17  C   UNL     1       0.820  13.472  21.341  0.00  0.00     0.201 C 
ENDBRANCH  15  16
ENDBRANCH   8  15
BRANCH  14  18
HETATM   18  O   UNL     1       7.848  11.427  20.136  0.00  0.00    -0.360 OA
HETATM   19  H   UNL     1       8.477  12.165  20.033  0.00  0.00     0.217 HD
ENDBRANCH  14  18
ENDBRANCH   1   5
BRANCH   3  20
HETATM   20  C   UNL     1       4.012   9.157  17.481  0.00  0.00     0.037 A 
HETATM   21  C   UNL     1       2.846   8.442  17.777  0.00  0.00     0.032 A 
HETATM   22  C   UNL     1       2.507   7.264  17.089  0.00  0.00     0.031 A 
HETATM   23  C   UNL     1       3.319   6.740  16.081  0.00  0.00     0.030 A 
HETATM   24  C   UNL     1       4.470   7.479  15.769  0.00  0.00     0.031 A 
HETATM   25  C   UNL     1       4.807   8.668  16.440  0.00  0.00     0.032 A 
BRANCH  23  26
HETATM   26  N   UNL     1       2.998   5.598  15.375  0.00  0.00    -0.377 N 
HETATM   27  C   UNL     1       3.334   5.414  13.954  0.00  0.00     0.149 C 
HETATM   28  C   UNL     1       3.672   3.928  13.728  0.00  0.00     0.187 C 
HETATM   29  O   UNL     1       2.602   3.059  14.145  0.00  0.00    -0.388 OA
HETATM   30  C   UNL     1       2.299   3.266  15.536  0.00  0.00     0.187 C 
HETATM   31  C   UNL     1       1.894   4.722  15.810  0.00  0.00     0.149 C 
ENDBRANCH  23  26
ENDBRANCH   3  20
TORSDOF 6
ENDMDL
MODEL 5
REMARK VINA RESULT:    -6.810      5.718      6.746
REMARK INTER + INTRA:          -9.784
REMARK INTER:                  -9.000
REMARK INTRA:                  -0.784
REMARK UNBOUND:                -0.784
REMARK  6 active torsions:
REMARK  status: ('A' for Active; 'I' for Inactive)
REMARK    1  A    between atoms: O_2  and  C_3 
REMARK    2  A    between atoms: C_3  and  C_4 
REMARK    3  A    between atoms: C_11  and  C_15 
REMARK    4  A    between atoms: C_12  and  O_14 
REMARK       I    between atoms: C_15  and  N_17 
REMARK    5  A    between atoms: N_17  and  C_19 
REMARK    6  A    between atoms: C_22  and  N_25 
ROOT
HETATM    1  C   UNL     1       2.369  12.788  22.912  0.00  0.00     0.260 C 
HETATM    2  O   UNL     1       2.989  11.957  22.242  0.00  0.00    -0.267 OA
HETATM    3  N   UNL     1       3.012  13.710  23.772  0.00  0.00    -0.318 N 
HETATM    4  C   UNL     1       2.326  14.591  24.720  0.00  0.00     0.159 C 
ENDROOT
BRANCH   1   5
HETATM    5  C   UNL     1       0.886  12.723  22.724  0.00  0.00     0.066 A 
HETATM    6  C   UNL     1       0.199  11.932  23.678  0.00  0.00     0.035 A 
HETATM    7  C   UNL     1      -1.212  11.876  23.678  0.00  0.00     0.022 A 
HETATM    8  C   UNL     1      -2.228  11.301  24.496  0.00  0.00     0.090 A 
HETATM    9  C   UNL     1      -1.900  12.554  22.680  0.00  0.00     0.065 A 
HETATM   10  N   UNL     1      -3.452  11.533  23.996  0.00  0.00    -0.176 NA
HETATM   11  N   UNL     1      -3.222  12.300  22.918  0.00  0.00    -0.277 N 
HETATM   12  H   UNL     1      -4.020  12.628  22.387  0.00  0.00     0.189 HD
HETATM   13  C   UNL     1      -1.265  13.342  21.718  0.00  0.00     0.069 A 
HETATM   14  C   UNL     1       0.130  13.470  21.813  0.00  0.00     0.083 A 
BRANCH   8  15
HETATM   15  C   UNL     1      -2.062  10.533  25.772  0.00  0.00     0.228 C 
BRANCH  15  16
HETATM   16  O   UNL     1      -1.247   9.367  25.595  0.00  0.00    -0.390 OA
HETATM   17  C   UNL     1      -0.857   8.809  26.844  0.00  0.00     0.201 C 
ENDBRANCH  15  16
ENDBRANCH   8  15
BRANCH  14  18
HETATM   18  O   UNL     1       0.656  14.447  21.012  0.00  0.00    -0.360 OA
HETATM   19  H   UNL     1       1.217  15.009  21.580  0.00  0.00     0.217 HD
ENDBRANCH  14  18
ENDBRANCH   1   5
BRANCH   3  20
HETATM   20  C   UNL     1       4.456  13.797  23.763  0.00  0.00     0.037 A 
HETATM   21  C   UNL     1       5.127  14.696  22.926  0.00  0.00     0.032 A 
HETATM   22  C   UNL     1       6.530  14.781  22.906  0.00  0.00     0.031 A 
HETATM   23  C   UNL     1       7.329  13.968  23.714  0.00  0.00     0.030 A 
HETATM   24  C   UNL     1       6.648  13.093  24.572  0.00  0.00     0.031 A 
HETATM   25  C   UNL     1       5.244  13.014  24.611  0.00  0.00     0.032 A 
BRANCH  23  26
HETATM   26  N   UNL     1       8.706  14.048  23.730  0.00  0.00    -0.377 N 
HETATM   27  C   UNL     1       9.445  15.240  23.284  0.00  0.00     0.149 C 
HETATM   28  C   UNL     1      10.694  15.394  24.173  0.00  0.00     0.187 C 
HETATM   29  O   UNL     1      11.518  14.213  24.159  0.00  0.00    -0.388 OA
HETATM   30  C   UNL     1      10.765  13.068  24.600  0.00  0.00     0.187 C 
HETATM   31  C   UNL     1       9.537  12.830  23.708  0.00  0.00     0.149 C 
ENDBRANCH  23  26
ENDBRANCH   3  20
TORSDOF 6
ENDMDL
MODEL 6
REMARK VINA RESULT:    -6.767      2.355      9.884
REMARK INTER + INTRA:          -9.727
REMARK INTER:                  -8.976
REMARK INTRA:                  -0.751
REMARK UNBOUND:                -0.784
REMARK  6 active torsions:
REMARK  status: ('A' for Active; 'I' for Inactive)
REMARK    1  A    between atoms: O_2  and  C_3 
REMARK    2  A    between atoms: C_3  and  C_4 
REMARK    3  A    between atoms: C_11  and  C_15 
REMARK    4  A    between atoms: C_12  and  O_14 
REMARK       I    between atoms: C_15  and  N_17 
REMARK    5  A    between atoms: N_17  and  C_19 
REMARK    6  A    between atoms: C_22  and  N_25 
ROOT
HETATM    1  C   UNL     1       7.305  12.975  22.860  0.00  0.00     0.260 C 
HETATM    2  O   UNL     1       7.878  13.307  21.818  0.00  0.00    -0.267 OA
HETATM    3  N   UNL     1       6.252  12.030  22.885  0.00  0.00    -0.318 N 
HETATM    4  C   UNL     1       5.421  11.735  24.055  0.00  0.00     0.159 C 
ENDROOT
BRANCH   1   5
HETATM    5  C   UNL     1       7.833  13.665  24.078  0.00  0.00     0.066 A 
HETATM    6  C   UNL     1       9.143  13.283  24.458  0.00  0.00     0.035 A 
HETATM    7  C   UNL     1       9.798  13.938  25.524  0.00  0.00     0.022 A 
HETATM    8  C   UNL     1      11.093  13.913  26.118  0.00  0.00     0.090 A 
HETATM    9  C   UNL     1       9.101  14.909  26.231  0.00  0.00     0.065 A 
HETATM   10  N   UNL     1      11.169  14.744  27.170  0.00  0.00    -0.176 NA
HETATM   11  N   UNL     1       9.965  15.339  27.199  0.00  0.00    -0.277 N 
HETATM   12  H   UNL     1       9.797  16.042  27.909  0.00  0.00     0.189 HD
HETATM   13  C   UNL     1       7.808  15.315  25.895  0.00  0.00     0.069 A 
HETATM   14  C   UNL     1       7.227  14.726  24.761  0.00  0.00     0.083 A 
BRANCH   8  15
HETATM   15  C   UNL     1      12.289  13.113  25.696  0.00  0.00     0.228 C 
BRANCH  15  16
HETATM   16  O   UNL     1      13.316  13.940  25.133  0.00  0.00    -0.390 OA
HETATM   17  C   UNL     1      12.943  14.436  23.854  0.00  0.00     0.201 C 
ENDBRANCH  15  16
ENDBRANCH   8  15
BRANCH  14  18
HETATM   18  O   UNL     1       6.080  15.343  24.339  0.00  0.00    -0.360 OA
HETATM   19  H   UNL     1       6.114  16.262  24.666  0.00  0.00     0.217 HD
ENDBRANCH  14  18
ENDBRANCH   1   5
BRANCH   3  20
HETATM   20  C   UNL     1       5.923  11.304  21.679  0.00  0.00     0.037 A 
HETATM   21  C   UNL     1       6.332   9.979  21.491  0.00  0.00     0.032 A 
HETATM   22  C   UNL     1       6.022   9.270  20.317  0.00  0.00     0.031 A 
HETATM   23  C   UNL     1       5.298   9.851  19.274  0.00  0.00     0.030 A 
HETATM   24  C   UNL     1       4.866  11.168  19.483  0.00  0.00     0.031 A 
HETATM   25  C   UNL     1       5.155  11.880  20.662  0.00  0.00     0.032 A 
BRANCH  23  26
HETATM   26  N   UNL     1       4.962   9.169  18.123  0.00  0.00    -0.377 N 
HETATM   27  C   UNL     1       5.829   8.148  17.514  0.00  0.00     0.149 C 
HETATM   28  C   UNL     1       4.931   7.053  16.908  0.00  0.00     0.187 C 
HETATM   29  O   UNL     1       3.986   7.588  15.962  0.00  0.00    -0.388 OA
HETATM   30  C   UNL     1       3.156   8.583  16.590  0.00  0.00     0.187 C 
HETATM   31  C   UNL     1       3.998   9.735  17.160  0.00  0.00     0.149 C 
ENDBRANCH  23  26
ENDBRANCH   3  20
TORSDOF 6
ENDMDL
MODEL 7
REMARK VINA RESULT:    -6.764      2.144      9.854
REMARK INTER + INTRA:          -9.724
REMARK INTER:                  -9.106
REMARK INTRA:                  -0.617
REMARK UNBOUND:                -0.784
REMARK  6 active torsions:
REMARK  status: ('A' for Active; 'I' for Inactive)
REMARK    1  A    between atoms: O_2  and  C_3 
REMARK    2  A    between atoms: C_3  and  C_4 
REMARK    3  A    between atoms: C_11  and  C_15 
REMARK    4  A    between atoms: C_12  and  O_14 
REMARK       I    between atoms: C_15  and  N_17 
REMARK    5  A    between atoms: N_17  and  C_19 
REMARK    6  A    between atoms: C_22  and  N_25 
ROOT
HETATM    1  C   UNL     1       7.277  11.459  22.359  0.00  0.00     0.260 C 
HETATM    2  O   UNL     1       8.012  10.494  22.125  0.00  0.00    -0.267 OA
HETATM    3  N   UNL     1       6.116  11.738  21.599  0.00  0.00    -0.318 N 
HETATM    4  C   UNL     1       5.314  12.958  21.714  0.00  0.00     0.159 C 
ENDROOT
BRANCH   1   5
HETATM    5  C   UNL     1       7.736  12.293  23.514  0.00  0.00     0.066 A 
HETATM    6  C   UNL     1       8.885  13.081  23.260  0.00  0.00     0.035 A 
HETATM    7  C   UNL     1       9.355  13.994  24.230  0.00  0.00     0.022 A 
HETATM    8  C   UNL     1      10.371  14.990  24.311  0.00  0.00     0.090 A 
HETATM    9  C   UNL     1       8.707  14.045  25.457  0.00  0.00     0.065 A 
HETATM   10  N   UNL     1      10.408  15.558  25.527  0.00  0.00    -0.176 NA
HETATM   11  N   UNL     1       9.387  14.982  26.184  0.00  0.00    -0.277 N 
HETATM   12  H   UNL     1       9.201  15.283  27.133  0.00  0.00     0.189 HD
HETATM   13  C   UNL     1       7.574  13.285  25.753  0.00  0.00     0.069 A 
HETATM   14  C   UNL     1       7.064  12.471  24.729  0.00  0.00     0.083 A 
BRANCH   8  15
HETATM   15  C   UNL     1      11.318  15.434  23.237  0.00  0.00     0.228 C 
BRANCH  15  16
HETATM   16  O   UNL     1      10.684  15.489  21.952  0.00  0.00    -0.390 OA
HETATM   17  C   UNL     1       9.950  16.696  21.786  0.00  0.00     0.201 C 
ENDBRANCH  15  16
ENDBRANCH   8  15
BRANCH  14  18
HETATM   18  O   UNL     1       5.823  11.958  24.991  0.00  0.00    -0.360 OA
HETATM   19  H   UNL     1       5.901  11.425  25.805  0.00  0.00     0.217 HD
ENDBRANCH  14  18
ENDBRANCH   1   5
BRANCH   3  20
HETATM   20  C   UNL     1       5.674  10.784  20.607  0.00  0.00     0.037 A 
HETATM   21  C   UNL     1       5.138   9.544  20.974  0.00  0.00     0.032 A 
HETATM   22  C   UNL     1       4.713   8.609  20.015  0.00  0.00     0.031 A 
HETATM   23  C   UNL     1       4.811   8.863  18.645  0.00  0.00     0.030 A 
HETATM   24  C   UNL     1       5.320  10.119  18.285  0.00  0.00     0.031 A 
HETATM   25  C   UNL     1       5.731  11.068  19.239  0.00  0.00     0.032 A 
BRANCH  23  26
HETATM   26  N   UNL     1       4.380   7.971  17.684  0.00  0.00    -0.377 N 
HETATM   27  C   UNL     1       5.000   6.653  17.477  0.00  0.00     0.149 C 
HETATM   28  C   UNL     1       3.895   5.657  17.080  0.00  0.00     0.187 C 
HETATM   29  O   UNL     1       3.163   6.094  15.919  0.00  0.00    -0.388 OA
HETATM   30  C   UNL     1       2.571   7.384  16.155  0.00  0.00     0.187 C 
HETATM   31  C   UNL     1       3.638   8.435  16.497  0.00  0.00     0.149 C 
ENDBRANCH  23  26
ENDBRANCH   3  20
TORSDOF 6
ENDMDL
MODEL 8
REMARK VINA RESULT:    -6.746      2.618      9.827
REMARK INTER + INTRA:          -9.700
REMARK INTER:                  -9.061
REMARK INTRA:                  -0.639
REMARK UNBOUND:                -0.784
REMARK  6 active torsions:
REMARK  status: ('A' for Active; 'I' for Inactive)
REMARK    1  A    between atoms: O_2  and  C_3 
REMARK    2  A    between atoms: C_3  and  C_4 
REMARK    3  A    between atoms: C_11  and  C_15 
REMARK    4  A    between atoms: C_12  and  O_14 
REMARK       I    between atoms: C_15  and  N_17 
REMARK    5  A    between atoms: N_17  and  C_19 
REMARK    6  A    between atoms: C_22  and  N_25 
ROOT
HETATM    1  C   UNL     1       5.678  11.164  20.002  0.00  0.00     0.260 C 
HETATM    2  O   UNL     1       4.963  11.582  19.086  0.00  0.00    -0.267 OA
HETATM    3  N   UNL     1       5.874   9.785  20.252  0.00  0.00    -0.318 N 
HETATM    4  C   UNL     1       6.559   9.236  21.424  0.00  0.00     0.159 C 
ENDROOT
BRANCH   1   5
HETATM    5  C   UNL     1       6.310  12.253  20.811  0.00  0.00     0.066 A 
HETATM    6  C   UNL     1       5.426  12.936  21.683  0.00  0.00     0.035 A 
HETATM    7  C   UNL     1       5.917  13.910  22.580  0.00  0.00     0.022 A 
HETATM    8  C   UNL     1       5.389  14.709  23.635  0.00  0.00     0.090 A 
HETATM    9  C   UNL     1       7.268  14.231  22.532  0.00  0.00     0.065 A 
HETATM   10  N   UNL     1       6.322  15.527  24.149  0.00  0.00    -0.176 NA
HETATM   11  N   UNL     1       7.440  15.202  23.478  0.00  0.00    -0.277 N 
HETATM   12  H   UNL     1       8.299  15.682  23.723  0.00  0.00     0.189 HD
HETATM   13  C   UNL     1       8.174  13.587  21.687  0.00  0.00     0.069 A 
HETATM   14  C   UNL     1       7.677  12.545  20.890  0.00  0.00     0.083 A 
BRANCH   8  15
HETATM   15  C   UNL     1       3.996  14.707  24.188  0.00  0.00     0.228 C 
BRANCH  15  16
HETATM   16  O   UNL     1       3.060  15.317  23.289  0.00  0.00    -0.390 OA
HETATM   17  C   UNL     1       1.868  14.551  23.178  0.00  0.00     0.201 C 
ENDBRANCH  15  16
ENDBRANCH   8  15
BRANCH  14  18
HETATM   18  O   UNL     1       8.648  11.794  20.285  0.00  0.00    -0.360 OA
HETATM   19  H   UNL     1       8.627  12.013  19.334  0.00  0.00     0.217 HD
ENDBRANCH  14  18
ENDBRANCH   1   5
BRANCH   3  20
HETATM   20  C   UNL     1       5.347   8.815  19.317  0.00  0.00     0.037 A 
HETATM   21  C   UNL     1       5.822   8.736  18.003  0.00  0.00     0.032 A 
HETATM   22  C   UNL     1       5.309   7.801  17.088  0.00  0.00     0.031 A 
HETATM   23  C   UNL     1       4.295   6.907  17.437  0.00  0.00     0.030 A 
HETATM   24  C   UNL     1       3.846   6.972  18.764  0.00  0.00     0.031 A 
HETATM   25  C   UNL     1       4.366   7.893  19.692  0.00  0.00     0.032 A 
BRANCH  23  26
HETATM   26  N   UNL     1       3.791   5.965  16.564  0.00  0.00    -0.377 N 
HETATM   27  C   UNL     1       3.035   6.318  15.352  0.00  0.00     0.149 C 
HETATM   28  C   UNL     1       3.384   5.298  14.252  0.00  0.00     0.187 C 
HETATM   29  O   UNL     1       3.127   3.943  14.669  0.00  0.00    -0.388 OA
HETATM   30  C   UNL     1       3.880   3.631  15.856  0.00  0.00     0.187 C 
HETATM   31  C   UNL     1       3.526   4.584  17.008  0.00  0.00     0.149 C 
ENDBRANCH  23  26
ENDBRANCH   3  20
TORSDOF 6
ENDMDL
MODEL 9
REMARK VINA RESULT:    -6.733      2.335      9.783
REMARK INTER + INTRA:          -9.682
REMARK INTER:                  -8.965
REMARK INTRA:                  -0.717
REMARK UNBOUND:                -0.784
REMARK  6 active torsions:
REMARK  status: ('A' for Active; 'I' for Inactive)
REMARK    1  A    between atoms: O_2  and  C_3 
REMARK    2  A    between atoms: C_3  and  C_4 
REMARK    3  A    between atoms: C_11  and  C_15 
REMARK    4  A    between atoms: C_12  and  O_14 
REMARK       I    between atoms: C_15  and  N_17 
REMARK    5  A    between atoms: N_17  and  C_19 
REMARK    6  A    between atoms: C_22  and  N_25 
ROOT
HETATM    1  C   UNL     1       8.389  12.868  21.324  0.00  0.00     0.260 C 
HETATM    2  O   UNL     1       9.084  12.429  20.402  0.00  0.00    -0.267 OA
HETATM    3  N   UNL     1       7.053  12.453  21.538  0.00  0.00    -0.318 N 
HETATM    4  C   UNL     1       6.129  13.066  22.494  0.00  0.00     0.159 C 
ENDROOT
BRANCH   1   5
HETATM    5  C   UNL     1       9.095  13.871  22.180  0.00  0.00     0.066 A 
HETATM    6  C   UNL     1       9.800  13.323  23.280  0.00  0.00     0.035 A 
HETATM    7  C   UNL     1      10.598  14.150  24.102  0.00  0.00     0.022 A 
HETATM    8  C   UNL     1      11.497  13.971  25.193  0.00  0.00     0.090 A 
HETATM    9  C   UNL     1      10.614  15.516  23.848  0.00  0.00     0.065 A 
HETATM   10  N   UNL     1      11.970  15.146  25.639  0.00  0.00    -0.176 NA
HETATM   11  N   UNL     1      11.436  16.049  24.801  0.00  0.00    -0.277 N 
HETATM   12  H   UNL     1      11.681  17.024  24.930  0.00  0.00     0.189 HD
HETATM   13  C   UNL     1       9.932  16.100  22.778  0.00  0.00     0.069 A 
HETATM   14  C   UNL     1       9.241  15.238  21.912  0.00  0.00     0.083 A 
BRANCH   8  15
HETATM   15  C   UNL     1      11.936  12.686  25.827  0.00  0.00     0.228 C 
BRANCH  15  16
HETATM   16  O   UNL     1      12.277  12.859  27.209  0.00  0.00    -0.390 OA
HETATM   17  C   UNL     1      13.682  12.777  27.413  0.00  0.00     0.201 C 
ENDBRANCH  15  16
ENDBRANCH   8  15
BRANCH  14  18
HETATM   18  O   UNL     1       8.815  15.833  20.756  0.00  0.00    -0.360 OA
HETATM   19  H   UNL     1       7.849  15.946  20.832  0.00  0.00     0.217 HD
ENDBRANCH  14  18
ENDBRANCH   1   5
BRANCH   3  20
HETATM   20  C   UNL     1       6.516  11.364  20.752  0.00  0.00     0.037 A 
HETATM   21  C   UNL     1       6.566  10.042  21.208  0.00  0.00     0.032 A 
HETATM   22  C   UNL     1       6.053   8.978  20.447  0.00  0.00     0.031 A 
HETATM   23  C   UNL     1       5.474   9.181  19.193  0.00  0.00     0.030 A 
HETATM   24  C   UNL     1       5.399  10.512  18.756  0.00  0.00     0.031 A 
HETATM   25  C   UNL     1       5.894  11.585  19.520  0.00  0.00     0.032 A 
BRANCH  23  26
HETATM   26  N   UNL     1       4.942   8.157  18.436  0.00  0.00    -0.377 N 
HETATM   27  C   UNL     1       4.185   7.038  19.020  0.00  0.00     0.149 C 
HETATM   28  C   UNL     1       3.072   6.641  18.032  0.00  0.00     0.187 C 
HETATM   29  O   UNL     1       3.595   6.315  16.730  0.00  0.00    -0.388 OA
HETATM   30  C   UNL     1       4.328   7.429  16.189  0.00  0.00     0.187 C 
HETATM   31  C   UNL     1       5.493   7.830  17.107  0.00  0.00     0.149 C 
ENDBRANCH  23  26
ENDBRANCH   3  20
TORSDOF 6
ENDMDL
