MODEL 1
REMARK VINA RESULT:    -9.069      0.000      0.000
REMARK INTER + INTRA:         -12.172
REMARK INTER:                 -11.161
REMARK INTRA:                  -1.011
REMARK UNBOUND:                -0.718
REMARK  5 active torsions:
REMARK  status: ('A' for Active; 'I' for Inactive)
REMARK    1  A    between atoms: C_5  and  N_6 
REMARK       I    between atoms: N_6  and  C_7 
REMARK    2  A    between atoms: C_7  and  C_9 
REMARK    3  A    between atoms: C_10  and  O_11 
REMARK    4  A    between atoms: C_17  and  C_18 
REMARK    5  A    between atoms: C_18  and  C_19 
ROOT
HETATM    1  C   UNL     1      -2.622  13.274  21.939  0.00  0.00     0.066 C 
HETATM    2  C   UNL     1      -3.985  13.497  22.184  0.00  0.00     0.083 C 
HETATM    3  C   UNL     1      -4.638  14.662  21.749  0.00  0.00     0.069 C 
HETATM    4  C   UNL     1      -3.871  15.606  21.053  0.00  0.00     0.065 A 
HETATM    5  N   UNL     1      -4.191  16.800  20.485  0.00  0.00    -0.277 N 
HETATM    6  H   UNL     1      -5.103  17.242  20.447  0.00  0.00     0.189 HD
HETATM    7  N   UNL     1      -3.161  17.421  19.886  0.00  0.00    -0.178 NA
HETATM    8  C   UNL     1      -2.111  16.606  20.104  0.00  0.00     0.071 A 
HETATM    9  C   UNL     1      -2.506  15.451  20.844  0.00  0.00     0.020 A 
HETATM   10  C   UNL     1      -1.862  14.303  21.354  0.00  0.00     0.035 C 
ENDROOT
BRANCH   1  11
HETATM   11  C   UNL     1      -1.996  11.964  22.326  0.00  0.00     0.260 C 
HETATM   12  N   UNL     1      -1.206  11.866  23.501  0.00  0.00    -0.318 N 
HETATM   13  C   UNL     1      -0.781  13.068  24.232  0.00  0.00     0.159 C 
HETATM   14  O   UNL     1      -2.216  11.043  21.534  0.00  0.00    -0.267 OA
BRANCH  12  15
HETATM   15  C   UNL     1      -0.629  10.621  23.974  0.00  0.00     0.037 A 
HETATM   16  C   UNL     1       0.528  10.054  23.425  0.00  0.00     0.031 A 
HETATM   17  C   UNL     1       1.131   8.922  24.003  0.00  0.00     0.021 A 
HETATM   18  C   UNL     1       0.574   8.329  25.130  0.00  0.00     0.011 A 
HETATM   19 BR   UNL     1       1.420   6.852  25.948  0.00  0.00    -0.051 Br
HETATM   20  C   UNL     1      -0.603   8.832  25.664  0.00  0.00     0.021 A 
HETATM   21  C   UNL     1      -1.199   9.958  25.082  0.00  0.00     0.031 A 
ENDBRANCH  12  15
ENDBRANCH   1  11
BRANCH   2  22
HETATM   22  O   UNL     1      -4.773  12.608  22.872  0.00  0.00    -0.360 OA
HETATM   23  H   UNL     1      -4.942  11.845  22.275  0.00  0.00     0.217 HD
ENDBRANCH   2  22
BRANCH   8  24
HETATM   24  C   UNL     1      -0.774  16.951  19.513  0.00  0.00     0.100 C 
BRANCH  24  25
HETATM   25  C   UNL     1       0.319  16.771  20.545  0.00  0.00    -0.052 C 
HETATM   26  C   UNL     1       1.504  16.058  20.304  0.00  0.00     0.014 C 
HETATM   27  C   UNL     1       2.545  16.050  21.239  0.00  0.00    -0.061 C 
HETATM   28  C   UNL     1       3.879  15.468  20.881  0.00  0.00     0.048 C 
HETATM   29  C   UNL     1       2.340  16.628  22.496  0.00  0.00     0.007 C 
HETATM   30  C   UNL     1       1.128  17.246  22.793  0.00  0.00     0.001 C 
HETATM   31  C   UNL     1       0.131  17.330  21.820  0.00  0.00     0.007 C 
ENDBRANCH  24  25
ENDBRANCH   8  24
TORSDOF 5
ENDMDL
MODEL 2
REMARK VINA RESULT:    -9.041      1.442      2.121
REMARK INTER + INTRA:         -12.137
REMARK INTER:                 -11.179
REMARK INTRA:                  -0.957
REMARK UNBOUND:                -0.718
REMARK  5 active torsions:
REMARK  status: ('A' for Active; 'I' for Inactive)
REMARK    1  A    between atoms: C_5  and  N_6 
REMARK       I    between atoms: N_6  and  C_7 
REMARK    2  A    between atoms: C_7  and  C_9 
REMARK    3  A    between atoms: C_10  and  O_11 
REMARK    4  A    between atoms: C_17  and  C_18 
REMARK    5  A    between atoms: C_18  and  C_19 
ROOT
HETATM    1  C   UNL     1      -1.391  12.806  22.291  0.00  0.00     0.066 C 
HETATM    2  C   UNL     1      -2.453  12.527  21.418  0.00  0.00     0.083 C 
HETATM    3  C   UNL     1      -2.987  13.503  20.560  0.00  0.00     0.069 C 
HETATM    4  C   UNL     1      -2.415  14.782  20.608  0.00  0.00     0.065 A 
HETATM    5  N   UNL     1      -2.670  15.921  19.911  0.00  0.00    -0.277 N 
HETATM    6  H   UNL     1      -3.353  16.055  19.172  0.00  0.00     0.189 HD
HETATM    7  N   UNL     1      -1.885  16.961  20.242  0.00  0.00    -0.178 NA
HETATM    8  C   UNL     1      -1.103  16.483  21.228  0.00  0.00     0.071 A 
HETATM    9  C   UNL     1      -1.404  15.114  21.503  0.00  0.00     0.020 A 
HETATM   10  C   UNL     1      -0.936  14.132  22.401  0.00  0.00     0.035 C 
ENDROOT
BRANCH   1  11
HETATM   11  C   UNL     1      -0.783  11.700  23.107  0.00  0.00     0.260 C 
HETATM   12  N   UNL     1      -1.408  11.265  24.304  0.00  0.00    -0.318 N 
HETATM   13  C   UNL     1      -2.514  12.027  24.903  0.00  0.00     0.159 C 
HETATM   14  O   UNL     1       0.276  11.258  22.652  0.00  0.00    -0.267 OA
BRANCH  12  15
HETATM   15  C   UNL     1      -0.917  10.159  25.105  0.00  0.00     0.037 A 
HETATM   16  C   UNL     1      -0.849  10.195  26.504  0.00  0.00     0.031 A 
HETATM   17  C   UNL     1      -0.499   9.053  27.247  0.00  0.00     0.021 A 
HETATM   18  C   UNL     1      -0.192   7.862  26.600  0.00  0.00     0.011 A 
HETATM   19 BR   UNL     1       0.210   6.310  27.598  0.00  0.00    -0.051 Br
HETATM   20  C   UNL     1      -0.195   7.809  25.214  0.00  0.00     0.021 A 
HETATM   21  C   UNL     1      -0.542   8.950  24.481  0.00  0.00     0.031 A 
ENDBRANCH  12  15
ENDBRANCH   1  11
BRANCH   2  22
HETATM   22  O   UNL     1      -3.053  11.295  21.345  0.00  0.00    -0.360 OA
HETATM   23  H   UNL     1      -2.774  10.787  22.140  0.00  0.00     0.217 HD
ENDBRANCH   2  22
BRANCH   8  24
HETATM   24  C   UNL     1      -0.034  17.361  21.814  0.00  0.00     0.100 C 
BRANCH  24  25
HETATM   25  C   UNL     1       1.334  16.769  21.556  0.00  0.00    -0.052 C 
HETATM   26  C   UNL     1       2.094  16.114  22.537  0.00  0.00     0.014 C 
HETATM   27  C   UNL     1       3.284  15.454  22.209  0.00  0.00    -0.061 C 
HETATM   28  C   UNL     1       3.969  14.582  23.218  0.00  0.00     0.048 C 
HETATM   29  C   UNL     1       3.803  15.582  20.917  0.00  0.00     0.007 C 
HETATM   30  C   UNL     1       3.117  16.322  19.957  0.00  0.00     0.001 C 
HETATM   31  C   UNL     1       1.885  16.898  20.269  0.00  0.00     0.007 C 
ENDBRANCH  24  25
ENDBRANCH   8  24
TORSDOF 5
ENDMDL
MODEL 3
REMARK VINA RESULT:    -8.836      1.735      2.505
REMARK INTER + INTRA:         -11.879
REMARK INTER:                 -10.882
REMARK INTRA:                  -0.997
REMARK UNBOUND:                -0.718
REMARK  5 active torsions:
REMARK  status: ('A' for Active; 'I' for Inactive)
REMARK    1  A    between atoms: C_5  and  N_6 
REMARK       I    between atoms: N_6  and  C_7 
REMARK    2  A    between atoms: C_7  and  C_9 
REMARK    3  A    between atoms: C_10  and  O_11 
REMARK    4  A    between atoms: C_17  and  C_18 
REMARK    5  A    between atoms: C_18  and  C_19 
ROOT
HETATM    1  C   UNL     1      -2.607  14.007  23.368  0.00  0.00     0.066 C 
HETATM    2  C   UNL     1      -3.727  13.765  22.558  0.00  0.00     0.083 C 
HETATM    3  C   UNL     1      -3.935  14.455  21.352  0.00  0.00     0.069 C 
HETATM    4  C   UNL     1      -2.974  15.405  20.982  0.00  0.00     0.065 A 
HETATM    5  N   UNL     1      -2.861  16.210  19.891  0.00  0.00    -0.277 N 
HETATM    6  H   UNL     1      -3.483  16.259  19.092  0.00  0.00     0.189 HD
HETATM    7  N   UNL     1      -1.769  16.993  19.892  0.00  0.00    -0.178 NA
HETATM    8  C   UNL     1      -1.158  16.708  21.058  0.00  0.00     0.071 A 
HETATM    9  C   UNL     1      -1.884  15.717  21.786  0.00  0.00     0.020 A 
HETATM   10  C   UNL     1      -1.738  15.059  23.026  0.00  0.00     0.035 C 
ENDROOT
BRANCH   1  11
HETATM   11  C   UNL     1      -2.372  13.165  24.590  0.00  0.00     0.260 C 
HETATM   12  N   UNL     1      -1.577  11.991  24.511  0.00  0.00    -0.318 N 
HETATM   13  C   UNL     1      -1.167  11.439  23.211  0.00  0.00     0.159 C 
HETATM   14  O   UNL     1      -2.939  13.576  25.606  0.00  0.00    -0.267 OA
BRANCH  12  15
HETATM   15  C   UNL     1      -1.251  11.168  25.660  0.00  0.00     0.037 A 
HETATM   16  C   UNL     1      -2.109  11.003  26.755  0.00  0.00     0.031 A 
HETATM   17  C   UNL     1      -1.815  10.088  27.782  0.00  0.00     0.021 A 
HETATM   18  C   UNL     1      -0.646   9.337  27.739  0.00  0.00     0.011 A 
HETATM   19 BR   UNL     1      -0.282   8.059  29.080  0.00  0.00    -0.051 Br
HETATM   20  C   UNL     1       0.252   9.519  26.698  0.00  0.00     0.021 A 
HETATM   21  C   UNL     1      -0.046  10.433  25.680  0.00  0.00     0.031 A 
ENDBRANCH  12  15
ENDBRANCH   1  11
BRANCH   2  22
HETATM   22  O   UNL     1      -4.700  12.855  22.886  0.00  0.00    -0.360 OA
HETATM   23  H   UNL     1      -4.774  12.224  22.135  0.00  0.00     0.217 HD
ENDBRANCH   2  22
BRANCH   8  24
HETATM   24  C   UNL     1       0.157  17.359  21.381  0.00  0.00     0.100 C 
BRANCH  24  25
HETATM   25  C   UNL     1       1.263  16.326  21.405  0.00  0.00    -0.052 C 
HETATM   26  C   UNL     1       1.831  15.824  22.586  0.00  0.00     0.014 C 
HETATM   27  C   UNL     1       2.743  14.763  22.555  0.00  0.00    -0.061 C 
HETATM   28  C   UNL     1       3.174  14.099  23.829  0.00  0.00     0.048 C 
HETATM   29  C   UNL     1       3.215  14.303  21.323  0.00  0.00     0.007 C 
HETATM   30  C   UNL     1       2.745  14.865  20.138  0.00  0.00     0.001 C 
HETATM   31  C   UNL     1       1.765  15.858  20.179  0.00  0.00     0.007 C 
ENDBRANCH  24  25
ENDBRANCH   8  24
TORSDOF 5
ENDMDL
MODEL 4
REMARK VINA RESULT:    -8.712      2.492      4.140
REMARK INTER + INTRA:         -11.721
REMARK INTER:                 -10.881
REMARK INTRA:                  -0.841
REMARK UNBOUND:                -0.718
REMARK  5 active torsions:
REMARK  status: ('A' for Active; 'I' for Inactive)
REMARK    1  A    between atoms: C_5  and  N_6 
REMARK       I    between atoms: N_6  and  C_7 
REMARK    2  A    between atoms: C_7  and  C_9 
REMARK    3  A    between atoms: C_10  and  O_11 
REMARK    4  A    between atoms: C_17  and  C_18 
REMARK    5  A    between atoms: C_18  and  C_19 
ROOT
HETATM    1  C   UNL     1      -1.629  11.022  24.779  0.00  0.00     0.066 C 
HETATM    2  C   UNL     1      -2.241  11.388  25.988  0.00  0.00     0.083 C 
HETATM    3  C   UNL     1      -3.250  12.363  26.044  0.00  0.00     0.069 C 
HETATM    4  C   UNL     1      -3.628  12.966  24.837  0.00  0.00     0.065 A 
HETATM    5  N   UNL     1      -4.567  13.906  24.543  0.00  0.00    -0.277 N 
HETATM    6  H   UNL     1      -5.214  14.355  25.181  0.00  0.00     0.189 HD
HETATM    7  N   UNL     1      -4.639  14.226  23.239  0.00  0.00    -0.178 NA
HETATM    8  C   UNL     1      -3.677  13.482  22.662  0.00  0.00     0.071 A 
HETATM    9  C   UNL     1      -3.003  12.677  23.630  0.00  0.00     0.020 A 
HETATM   10  C   UNL     1      -1.945  11.744  23.614  0.00  0.00     0.035 C 
ENDROOT
BRANCH   1  11
HETATM   11  C   UNL     1      -0.635   9.895  24.756  0.00  0.00     0.260 C 
HETATM   12  N   UNL     1       0.756  10.167  24.684  0.00  0.00    -0.318 N 
HETATM   13  C   UNL     1       1.251  11.520  24.391  0.00  0.00     0.159 C 
HETATM   14  O   UNL     1      -1.143   8.770  24.779  0.00  0.00    -0.267 OA
BRANCH  12  15
HETATM   15  C   UNL     1       1.775   9.135  24.726  0.00  0.00     0.037 A 
HETATM   16  C   UNL     1       1.951   8.186  23.710  0.00  0.00     0.031 A 
HETATM   17  C   UNL     1       3.037   7.292  23.725  0.00  0.00     0.021 A 
HETATM   18  C   UNL     1       3.955   7.322  24.769  0.00  0.00     0.011 A 
HETATM   19 BR   UNL     1       5.452   6.171  24.755  0.00  0.00    -0.051 Br
HETATM   20  C   UNL     1       3.778   8.211  25.818  0.00  0.00     0.021 A 
HETATM   21  C   UNL     1       2.693   9.096  25.798  0.00  0.00     0.031 A 
ENDBRANCH  12  15
ENDBRANCH   1  11
BRANCH   2  22
HETATM   22  O   UNL     1      -1.895  10.836  27.195  0.00  0.00    -0.360 OA
HETATM   23  H   UNL     1      -1.675   9.891  27.031  0.00  0.00     0.217 HD
ENDBRANCH   2  22
BRANCH   8  24
HETATM   24  C   UNL     1      -3.502  13.529  21.171  0.00  0.00     0.100 C 
BRANCH  24  25
HETATM   25  C   UNL     1      -2.965  14.880  20.747  0.00  0.00    -0.052 C 
HETATM   26  C   UNL     1      -1.742  15.404  21.194  0.00  0.00     0.014 C 
HETATM   27  C   UNL     1      -1.223  16.587  20.655  0.00  0.00    -0.061 C 
HETATM   28  C   UNL     1       0.174  17.018  20.984  0.00  0.00     0.048 C 
HETATM   29  C   UNL     1      -2.007  17.339  19.774  0.00  0.00     0.007 C 
HETATM   30  C   UNL     1      -3.272  16.889  19.403  0.00  0.00     0.001 C 
HETATM   31  C   UNL     1      -3.741  15.662  19.874  0.00  0.00     0.007 C 
ENDBRANCH  24  25
ENDBRANCH   8  24
TORSDOF 5
ENDMDL
MODEL 5
REMARK VINA RESULT:    -8.675      3.549      6.113
REMARK INTER + INTRA:         -11.675
REMARK INTER:                 -10.959
REMARK INTRA:                  -0.716
REMARK UNBOUND:                -0.718
REMARK  5 active torsions:
REMARK  status: ('A' for Active; 'I' for Inactive)
REMARK    1  A    between atoms: C_5  and  N_6 
REMARK       I    between atoms: N_6  and  C_7 
REMARK    2  A    between atoms: C_7  and  C_9 
REMARK    3  A    between atoms: C_10  and  O_11 
REMARK    4  A    between atoms: C_17  and  C_18 
REMARK    5  A    between atoms: C_18  and  C_19 
ROOT
HETATM    1  C   UNL     1      -0.092  12.121  23.648  0.00  0.00     0.066 C 
HETATM    2  C   UNL     1      -0.291  10.733  23.697  0.00  0.00     0.083 C 
HETATM    3  C   UNL     1      -1.575  10.164  23.660  0.00  0.00     0.069 C 
HETATM    4  C   UNL     1      -2.664  11.042  23.572  0.00  0.00     0.065 A 
HETATM    5  N   UNL     1      -4.005  10.826  23.493  0.00  0.00    -0.277 N 
HETATM    6  H   UNL     1      -4.487   9.935  23.465  0.00  0.00     0.189 HD
HETATM    7  N   UNL     1      -4.742  11.947  23.409  0.00  0.00    -0.178 NA
HETATM    8  C   UNL     1      -3.837  12.943  23.471  0.00  0.00     0.071 A 
HETATM    9  C   UNL     1      -2.512  12.423  23.584  0.00  0.00     0.020 A 
HETATM   10  C   UNL     1      -1.214  12.968  23.693  0.00  0.00     0.035 C 
ENDROOT
BRANCH   1  11
HETATM   11  C   UNL     1       1.303  12.674  23.577  0.00  0.00     0.260 C 
HETATM   12  N   UNL     1       1.744  13.361  22.416  0.00  0.00    -0.318 N 
HETATM   13  C   UNL     1       0.953  13.343  21.178  0.00  0.00     0.159 C 
HETATM   14  O   UNL     1       1.988  12.451  24.580  0.00  0.00    -0.267 OA
BRANCH  12  15
HETATM   15  C   UNL     1       3.051  13.981  22.303  0.00  0.00     0.037 A 
HETATM   16  C   UNL     1       3.617  14.365  21.080  0.00  0.00     0.031 A 
HETATM   17  C   UNL     1       4.822  15.087  21.028  0.00  0.00     0.021 A 
HETATM   18  C   UNL     1       5.492  15.420  22.200  0.00  0.00     0.011 A 
HETATM   19 BR   UNL     1       7.074  16.449  22.135  0.00  0.00    -0.051 Br
HETATM   20  C   UNL     1       4.988  15.006  23.423  0.00  0.00     0.021 A 
HETATM   21  C   UNL     1       3.788  14.285  23.468  0.00  0.00     0.031 A 
ENDBRANCH  12  15
ENDBRANCH   1  11
BRANCH   2  22
HETATM   22  O   UNL     1       0.742   9.835  23.797  0.00  0.00    -0.360 OA
HETATM   23  H   UNL     1       0.352   8.934  23.739  0.00  0.00     0.217 HD
ENDBRANCH   2  22
BRANCH   8  24
HETATM   24  C   UNL     1      -4.297  14.367  23.341  0.00  0.00     0.100 C 
BRANCH  24  25
HETATM   25  C   UNL     1      -4.059  14.869  21.933  0.00  0.00    -0.052 C 
HETATM   26  C   UNL     1      -3.103  15.844  21.607  0.00  0.00     0.014 C 
HETATM   27  C   UNL     1      -2.820  16.162  20.274  0.00  0.00    -0.061 C 
HETATM   28  C   UNL     1      -1.653  17.041  19.938  0.00  0.00     0.048 C 
HETATM   29  C   UNL     1      -3.611  15.617  19.258  0.00  0.00     0.007 C 
HETATM   30  C   UNL     1      -4.639  14.731  19.571  0.00  0.00     0.001 C 
HETATM   31  C   UNL     1      -4.852  14.348  20.896  0.00  0.00     0.007 C 
ENDBRANCH  24  25
ENDBRANCH   8  24
TORSDOF 5
ENDMDL
MODEL 6
REMARK VINA RESULT:    -8.379      2.766      4.669
REMARK INTER + INTRA:         -11.301
REMARK INTER:                 -10.419
REMARK INTRA:                  -0.883
REMARK UNBOUND:                -0.718
REMARK  5 active torsions:
REMARK  status: ('A' for Active; 'I' for Inactive)
REMARK    1  A    between atoms: C_5  and  N_6 
REMARK       I    between atoms: N_6  and  C_7 
REMARK    2  A    between atoms: C_7  and  C_9 
REMARK    3  A    between atoms: C_10  and  O_11 
REMARK    4  A    between atoms: C_17  and  C_18 
REMARK    5  A    between atoms: C_18  and  C_19 
ROOT
HETATM    1  C   UNL     1      -0.614  10.972  24.641  0.00  0.00     0.066 C 
HETATM    2  C   UNL     1      -1.445  11.013  25.771  0.00  0.00     0.083 C 
HETATM    3  C   UNL     1      -2.730  11.578  25.728  0.00  0.00     0.069 C 
HETATM    4  C   UNL     1      -3.159  12.106  24.503  0.00  0.00     0.065 A 
HETATM    5  N   UNL     1      -4.327  12.689  24.120  0.00  0.00    -0.277 N 
HETATM    6  H   UNL     1      -5.157  12.840  24.684  0.00  0.00     0.189 HD
HETATM    7  N   UNL     1      -4.362  13.064  22.830  0.00  0.00    -0.178 NA
HETATM    8  C   UNL     1      -3.143  12.740  22.358  0.00  0.00     0.071 A 
HETATM    9  C   UNL     1      -2.343  12.141  23.378  0.00  0.00     0.020 A 
HETATM   10  C   UNL     1      -1.031  11.629  23.469  0.00  0.00     0.035 C 
ENDROOT
BRANCH   1  11
HETATM   11  C   UNL     1       0.706  10.257  24.709  0.00  0.00     0.260 C 
HETATM   12  N   UNL     1       0.768   8.848  24.551  0.00  0.00    -0.318 N 
HETATM   13  C   UNL     1      -0.453   8.030  24.559  0.00  0.00     0.159 C 
HETATM   14  O   UNL     1       1.671  10.995  24.931  0.00  0.00    -0.267 OA
BRANCH  12  15
HETATM   15  C   UNL     1       2.011   8.100  24.536  0.00  0.00     0.037 A 
HETATM   16  C   UNL     1       2.720   7.765  25.697  0.00  0.00     0.031 A 
HETATM   17  C   UNL     1       3.844   6.922  25.649  0.00  0.00     0.021 A 
HETATM   18  C   UNL     1       4.288   6.414  24.433  0.00  0.00     0.011 A 
HETATM   19 BR   UNL     1       5.754   5.225  24.374  0.00  0.00    -0.051 Br
HETATM   20  C   UNL     1       3.642   6.772  23.259  0.00  0.00     0.021 A 
HETATM   21  C   UNL     1       2.525   7.614  23.315  0.00  0.00     0.031 A 
ENDBRANCH  12  15
ENDBRANCH   1  11
BRANCH   2  22
HETATM   22  O   UNL     1      -1.064  10.521  26.993  0.00  0.00    -0.360 OA
HETATM   23  H   UNL     1      -1.058   9.540  26.924  0.00  0.00     0.217 HD
ENDBRANCH   2  22
BRANCH   8  24
HETATM   24  C   UNL     1      -2.832  12.958  20.905  0.00  0.00     0.100 C 
BRANCH  24  25
HETATM   25  C   UNL     1      -2.706  14.438  20.610  0.00  0.00    -0.052 C 
HETATM   26  C   UNL     1      -1.636  15.229  21.055  0.00  0.00     0.014 C 
HETATM   27  C   UNL     1      -1.492  16.555  20.629  0.00  0.00    -0.061 C 
HETATM   28  C   UNL     1      -0.238  17.316  20.938  0.00  0.00     0.048 C 
HETATM   29  C   UNL     1      -2.511  17.146  19.877  0.00  0.00     0.007 C 
HETATM   30  C   UNL     1      -3.636  16.407  19.518  0.00  0.00     0.001 C 
HETATM   31  C   UNL     1      -3.726  15.059  19.869  0.00  0.00     0.007 C 
ENDBRANCH  24  25
ENDBRANCH   8  24
TORSDOF 5
ENDMDL
MODEL 7
REMARK VINA RESULT:    -8.292      3.258      5.734
REMARK INTER + INTRA:         -11.191
REMARK INTER:                 -10.134
REMARK INTRA:                  -1.057
REMARK UNBOUND:                -0.718
REMARK  5 active torsions:
REMARK  status: ('A' for Active; 'I' for Inactive)
REMARK    1  A    between atoms: C_5  and  N_6 
REMARK       I    between atoms: N_6  and  C_7 
REMARK    2  A    between atoms: C_7  and  C_9 
REMARK    3  A    between atoms: C_10  and  O_11 
REMARK    4  A    between atoms: C_17  and  C_18 
REMARK    5  A    between atoms: C_18  and  C_19 
ROOT
HETATM    1  C   UNL     1       0.143   9.755  24.764  0.00  0.00     0.066 C 
HETATM    2  C   UNL     1      -0.635   9.698  25.931  0.00  0.00     0.083 C 
HETATM    3  C   UNL     1      -1.951  10.188  25.972  0.00  0.00     0.069 C 
HETATM    4  C   UNL     1      -2.466  10.743  24.793  0.00  0.00     0.065 A 
HETATM    5  N   UNL     1      -3.682  11.272  24.491  0.00  0.00    -0.277 N 
HETATM    6  H   UNL     1      -4.491  11.350  25.097  0.00  0.00     0.189 HD
HETATM    7  N   UNL     1      -3.799  11.701  23.222  0.00  0.00    -0.178 NA
HETATM    8  C   UNL     1      -2.588  11.471  22.682  0.00  0.00     0.071 A 
HETATM    9  C   UNL     1      -1.708  10.875  23.636  0.00  0.00     0.020 A 
HETATM   10  C   UNL     1      -0.366  10.438  23.644  0.00  0.00     0.035 C 
ENDROOT
BRANCH   1  11
HETATM   11  C   UNL     1       1.503   9.117  24.740  0.00  0.00     0.260 C 
HETATM   12  N   UNL     1       1.684   7.837  24.154  0.00  0.00    -0.318 N 
HETATM   13  C   UNL     1       0.532   7.005  23.778  0.00  0.00     0.159 C 
HETATM   14  O   UNL     1       2.387   9.787  25.280  0.00  0.00    -0.267 OA
BRANCH  12  15
HETATM   15  C   UNL     1       2.977   7.190  24.033  0.00  0.00     0.037 A 
HETATM   16  C   UNL     1       3.485   6.303  24.991  0.00  0.00     0.031 A 
HETATM   17  C   UNL     1       4.679   5.593  24.769  0.00  0.00     0.021 A 
HETATM   18  C   UNL     1       5.392   5.772  23.589  0.00  0.00     0.011 A 
HETATM   19 BR   UNL     1       6.957   4.768  23.258  0.00  0.00    -0.051 Br
HETATM   20  C   UNL     1       4.946   6.685  22.645  0.00  0.00     0.021 A 
HETATM   21  C   UNL     1       3.758   7.391  22.875  0.00  0.00     0.031 A 
ENDBRANCH  12  15
ENDBRANCH   1  11
BRANCH   2  22
HETATM   22  O   UNL     1      -0.169   9.175  27.111  0.00  0.00    -0.360 OA
HETATM   23  H   UNL     1       0.065   8.235  26.941  0.00  0.00     0.217 HD
ENDBRANCH   2  22
BRANCH   8  24
HETATM   24  C   UNL     1      -2.358  11.771  21.228  0.00  0.00     0.100 C 
BRANCH  24  25
HETATM   25  C   UNL     1      -2.588  13.241  20.952  0.00  0.00    -0.052 C 
HETATM   26  C   UNL     1      -1.743  14.260  21.420  0.00  0.00     0.014 C 
HETATM   27  C   UNL     1      -1.916  15.587  21.011  0.00  0.00    -0.061 C 
HETATM   28  C   UNL     1      -0.884  16.622  21.345  0.00  0.00     0.048 C 
HETATM   29  C   UNL     1      -3.040  15.928  20.252  0.00  0.00     0.007 C 
HETATM   30  C   UNL     1      -3.951  14.946  19.870  0.00  0.00     0.001 C 
HETATM   31  C   UNL     1      -3.719  13.611  20.204  0.00  0.00     0.007 C 
ENDBRANCH  24  25
ENDBRANCH   8  24
TORSDOF 5
ENDMDL
MODEL 8
REMARK VINA RESULT:    -8.179      3.216      4.705
REMARK INTER + INTRA:         -11.049
REMARK INTER:                 -10.331
REMARK INTRA:                  -0.718
REMARK UNBOUND:                -0.718
REMARK  5 active torsions:
REMARK  status: ('A' for Active; 'I' for Inactive)
REMARK    1  A    between atoms: C_5  and  N_6 
REMARK       I    between atoms: N_6  and  C_7 
REMARK    2  A    between atoms: C_7  and  C_9 
REMARK    3  A    between atoms: C_10  and  O_11 
REMARK    4  A    between atoms: C_17  and  C_18 
REMARK    5  A    between atoms: C_18  and  C_19 
ROOT
HETATM    1  C   UNL     1      -2.631  10.880  26.298  0.00  0.00     0.066 C 
HETATM    2  C   UNL     1      -4.030  10.925  26.405  0.00  0.00     0.083 C 
HETATM    3  C   UNL     1      -4.835  11.463  25.388  0.00  0.00     0.069 C 
HETATM    4  C   UNL     1      -4.186  11.959  24.249  0.00  0.00     0.065 A 
HETATM    5  N   UNL     1      -4.658  12.510  23.098  0.00  0.00    -0.277 N 
HETATM    6  H   UNL     1      -5.626  12.655  22.834  0.00  0.00     0.189 HD
HETATM    7  N   UNL     1      -3.703  12.860  22.220  0.00  0.00    -0.178 NA
HETATM    8  C   UNL     1      -2.550  12.553  22.845  0.00  0.00     0.071 A 
HETATM    9  C   UNL     1      -2.801  11.989  24.133  0.00  0.00     0.020 A 
HETATM   10  C   UNL     1      -2.015  11.507  25.201  0.00  0.00     0.035 C 
ENDROOT
BRANCH   1  11
HETATM   11  C   UNL     1      -1.822  10.194  27.363  0.00  0.00     0.260 C 
HETATM   12  N   UNL     1      -0.883   9.188  27.013  0.00  0.00    -0.318 N 
HETATM   13  C   UNL     1      -0.845   8.624  25.656  0.00  0.00     0.159 C 
HETATM   14  O   UNL     1      -2.074  10.568  28.512  0.00  0.00    -0.267 OA
BRANCH  12  15
HETATM   15  C   UNL     1      -0.020   8.532  27.978  0.00  0.00     0.037 A 
HETATM   16  C   UNL     1       1.372   8.689  27.993  0.00  0.00     0.031 A 
HETATM   17  C   UNL     1       2.157   8.147  29.028  0.00  0.00     0.021 A 
HETATM   18  C   UNL     1       1.561   7.424  30.055  0.00  0.00     0.011 A 
HETATM   19 BR   UNL     1       2.602   6.756  31.481  0.00  0.00    -0.051 Br
HETATM   20  C   UNL     1       0.192   7.203  30.038  0.00  0.00     0.021 A 
HETATM   21  C   UNL     1      -0.583   7.743  29.003  0.00  0.00     0.031 A 
ENDBRANCH  12  15
ENDBRANCH   1  11
BRANCH   2  22
HETATM   22  O   UNL     1      -4.708  10.464  27.504  0.00  0.00    -0.360 OA
HETATM   23  H   UNL     1      -4.158   9.758  27.912  0.00  0.00     0.217 HD
ENDBRANCH   2  22
BRANCH   8  24
HETATM   24  C   UNL     1      -1.245  12.750  22.127  0.00  0.00     0.100 C 
BRANCH  24  25
HETATM   25  C   UNL     1      -0.884  14.219  22.088  0.00  0.00    -0.052 C 
HETATM   26  C   UNL     1      -1.160  15.058  20.997  0.00  0.00     0.014 C 
HETATM   27  C   UNL     1      -0.941  16.438  21.073  0.00  0.00    -0.061 C 
HETATM   28  C   UNL     1      -1.438  17.344  19.987  0.00  0.00     0.048 C 
HETATM   29  C   UNL     1      -0.291  16.967  22.193  0.00  0.00     0.007 C 
HETATM   30  C   UNL     1       0.091  16.133  23.240  0.00  0.00     0.001 C 
HETATM   31  C   UNL     1      -0.217  14.772  23.195  0.00  0.00     0.007 C 
ENDBRANCH  24  25
ENDBRANCH   8  24
TORSDOF 5
ENDMDL
MODEL 9
REMARK VINA RESULT:    -8.128      2.969      4.107
REMARK INTER + INTRA:         -10.983
REMARK INTER:                 -10.164
REMARK INTRA:                  -0.819
REMARK UNBOUND:                -0.718
REMARK  5 active torsions:
REMARK  status: ('A' for Active; 'I' for Inactive)
REMARK    1  A    between atoms: C_5  and  N_6 
REMARK       I    between atoms: N_6  and  C_7 
REMARK    2  A    between atoms: C_7  and  C_9 
REMARK    3  A    between atoms: C_10  and  O_11 
REMARK    4  A    between atoms: C_17  and  C_18 
REMARK    5  A    between atoms: C_18  and  C_19 
ROOT
HETATM    1  C   UNL     1      -2.467  11.867  26.076  0.00  0.00     0.066 C 
HETATM    2  C   UNL     1      -3.653  11.819  25.328  0.00  0.00     0.083 C 
HETATM    3  C   UNL     1      -3.905  12.715  24.276  0.00  0.00     0.069 C 
HETATM    4  C   UNL     1      -2.920  13.671  23.997  0.00  0.00     0.065 A 
HETATM    5  N   UNL     1      -2.838  14.647  23.053  0.00  0.00    -0.277 N 
HETATM    6  H   UNL     1      -3.511  14.862  22.325  0.00  0.00     0.189 HD
HETATM    7  N   UNL     1      -1.705  15.369  23.100  0.00  0.00    -0.178 NA
HETATM    8  C   UNL     1      -1.031  14.859  24.148  0.00  0.00     0.071 A 
HETATM    9  C   UNL     1      -1.760  13.791  24.754  0.00  0.00     0.020 A 
HETATM   10  C   UNL     1      -1.565  12.922  25.849  0.00  0.00     0.035 C 
ENDROOT
BRANCH   1  11
HETATM   11  C   UNL     1      -2.195  10.817  27.115  0.00  0.00     0.260 C 
HETATM   12  N   UNL     1      -1.191   9.837  26.900  0.00  0.00    -0.318 N 
HETATM   13  C   UNL     1      -0.564   9.671  25.581  0.00  0.00     0.159 C 
HETATM   14  O   UNL     1      -2.924  10.887  28.109  0.00  0.00    -0.267 OA
BRANCH  12  15
HETATM   15  C   UNL     1      -0.827   8.836  27.886  0.00  0.00     0.037 A 
HETATM   16  C   UNL     1      -0.403   9.154  29.182  0.00  0.00     0.031 A 
HETATM   17  C   UNL     1      -0.194   8.153  30.148  0.00  0.00     0.021 A 
HETATM   18  C   UNL     1      -0.389   6.815  29.825  0.00  0.00     0.011 A 
HETATM   19 BR   UNL     1      -0.177   5.475  31.139  0.00  0.00    -0.051 Br
HETATM   20  C   UNL     1      -0.754   6.463  28.534  0.00  0.00     0.021 A 
HETATM   21  C   UNL     1      -0.958   7.465  27.577  0.00  0.00     0.031 A 
ENDBRANCH  12  15
ENDBRANCH   1  11
BRANCH   2  22
HETATM   22  O   UNL     1      -4.652  10.911  25.572  0.00  0.00    -0.360 OA
HETATM   23  H   UNL     1      -4.947  11.044  26.501  0.00  0.00     0.217 HD
ENDBRANCH   2  22
BRANCH   8  24
HETATM   24  C   UNL     1       0.338  15.386  24.473  0.00  0.00     0.100 C 
BRANCH  24  25
HETATM   25  C   UNL     1       1.123  15.629  23.201  0.00  0.00    -0.052 C 
HETATM   26  C   UNL     1       1.632  14.600  22.395  0.00  0.00     0.014 C 
HETATM   27  C   UNL     1       2.218  14.877  21.154  0.00  0.00    -0.061 C 
HETATM   28  C   UNL     1       2.561  13.760  20.214  0.00  0.00     0.048 C 
HETATM   29  C   UNL     1       2.441  16.206  20.785  0.00  0.00     0.007 C 
HETATM   30  C   UNL     1       2.042  17.243  21.624  0.00  0.00     0.001 C 
HETATM   31  C   UNL     1       1.374  16.957  22.816  0.00  0.00     0.007 C 
ENDBRANCH  24  25
ENDBRANCH   8  24
TORSDOF 5
ENDMDL
