MODEL 1
REMARK VINA RESULT:    -7.864      0.000      0.000
REMARK INTER + INTRA:         -11.380
REMARK INTER:                 -10.357
REMARK INTRA:                  -1.023
REMARK UNBOUND:                -0.988
REMARK  6 active torsions:
REMARK  status: ('A' for Active; 'I' for Inactive)
REMARK    1  A    between atoms: C_2  and  C_3 
REMARK    2  A    between atoms: C_3  and  C_5 
REMARK    3  A    between atoms: C_11  and  O_12 
REMARK    4  A    between atoms: C_13  and  C_14 
REMARK       I    between atoms: C_14  and  N_16 
REMARK    5  A    between atoms: N_16  and  C_18 
REMARK    6  A    between atoms: C_21  and  N_22 
ROOT
HETATM    1  C   UNL     1      -1.109  16.754  20.585  0.00  0.00     0.101 A 
HETATM    2  N   UNL     1      -1.772  17.562  19.740  0.00  0.00    -0.175 NA
HETATM    3  N   UNL     1      -3.044  17.142  19.830  0.00  0.00    -0.277 N 
HETATM    4  H   UNL     1      -3.734  17.596  19.238  0.00  0.00     0.189 HD
HETATM    5  C   UNL     1      -3.240  16.106  20.699  0.00  0.00     0.065 A 
HETATM    6  C   UNL     1      -4.374  15.354  21.006  0.00  0.00     0.069 A 
HETATM    7  C   UNL     1      -4.226  14.295  21.920  0.00  0.00     0.083 A 
HETATM    8  C   UNL     1      -3.016  14.045  22.580  0.00  0.00     0.066 A 
HETATM    9  C   UNL     1      -1.889  14.834  22.222  0.00  0.00     0.035 A 
HETATM   10  C   UNL     1      -1.991  15.856  21.253  0.00  0.00     0.022 A 
ENDROOT
BRANCH   8  11
HETATM   11  C   UNL     1      -2.717  12.922  23.538  0.00  0.00     0.260 C 
HETATM   12  O   UNL     1      -2.911  11.800  23.052  0.00  0.00    -0.267 OA
HETATM   13  N   UNL     1      -2.226  13.103  24.857  0.00  0.00    -0.318 N 
HETATM   14  C   UNL     1      -2.138  14.392  25.534  0.00  0.00     0.159 C 
BRANCH  13  15
HETATM   15  C   UNL     1      -1.861  11.952  25.654  0.00  0.00     0.037 A 
HETATM   16  C   UNL     1      -2.665  11.512  26.706  0.00  0.00     0.032 A 
HETATM   17  C   UNL     1      -2.294  10.418  27.504  0.00  0.00     0.031 A 
HETATM   18  C   UNL     1      -1.103   9.712  27.301  0.00  0.00     0.030 A 
HETATM   19  C   UNL     1      -0.334  10.118  26.203  0.00  0.00     0.031 A 
HETATM   20  C   UNL     1      -0.703  11.209  25.391  0.00  0.00     0.032 A 
BRANCH  18  21
HETATM   21  N   UNL     1      -0.686   8.721  28.163  0.00  0.00    -0.377 N 
HETATM   22  C   UNL     1      -0.598   7.300  27.796  0.00  0.00     0.149 C 
HETATM   23  C   UNL     1       0.726   6.714  28.318  0.00  0.00     0.187 C 
HETATM   24  O   UNL     1       0.876   6.916  29.735  0.00  0.00    -0.388 OA
HETATM   25  C   UNL     1       0.848   8.321  30.038  0.00  0.00     0.187 C 
HETATM   26  C   UNL     1      -0.476   8.971  29.601  0.00  0.00     0.149 C 
ENDBRANCH  18  21
ENDBRANCH  13  15
ENDBRANCH   8  11
BRANCH   7  27
HETATM   27  O   UNL     1      -5.307  13.469  22.074  0.00  0.00    -0.360 OA
HETATM   28  H   UNL     1      -5.665  13.232  21.203  0.00  0.00     0.217 HD
ENDBRANCH   7  27
BRANCH   1  29
HETATM   29  C   UNL     1       0.385  16.855  20.702  0.00  0.00     0.224 C 
HETATM   30  F   UNL     1       0.970  15.643  20.466  0.00  0.00    -0.243 F 
BRANCH  29  31
HETATM   31  C   UNL     1       0.832  17.339  22.080  0.00  0.00     0.039 C 
HETATM   32  C   UNL     1       1.564  16.246  22.845  0.00  0.00     0.008 C 
ENDBRANCH  29  31
ENDBRANCH   1  29
TORSDOF 6
ENDMDL
MODEL 2
REMARK VINA RESULT:    -7.786      1.929      2.449
REMARK INTER + INTRA:         -11.277
REMARK INTER:                 -10.504
REMARK INTRA:                  -0.773
REMARK UNBOUND:                -0.988
REMARK  6 active torsions:
REMARK  status: ('A' for Active; 'I' for Inactive)
REMARK    1  A    between atoms: C_2  and  C_3 
REMARK    2  A    between atoms: C_3  and  C_5 
REMARK    3  A    between atoms: C_11  and  O_12 
REMARK    4  A    between atoms: C_13  and  C_14 
REMARK       I    between atoms: C_14  and  N_16 
REMARK    5  A    between atoms: N_16  and  C_18 
REMARK    6  A    between atoms: C_21  and  N_22 
ROOT
HETATM    1  C   UNL     1       0.319  16.900  20.392  0.00  0.00     0.101 A 
HETATM    2  N   UNL     1      -0.250  17.913  19.716  0.00  0.00    -0.175 NA
HETATM    3  N   UNL     1      -1.553  17.591  19.698  0.00  0.00    -0.277 N 
HETATM    4  H   UNL     1      -2.186  18.209  19.198  0.00  0.00     0.189 HD
HETATM    5  C   UNL     1      -1.858  16.422  20.337  0.00  0.00     0.065 A 
HETATM    6  C   UNL     1      -3.056  15.721  20.467  0.00  0.00     0.069 A 
HETATM    7  C   UNL     1      -3.022  14.492  21.151  0.00  0.00     0.083 A 
HETATM    8  C   UNL     1      -1.858  14.016  21.768  0.00  0.00     0.066 A 
HETATM    9  C   UNL     1      -0.661  14.764  21.595  0.00  0.00     0.035 A 
HETATM   10  C   UNL     1      -0.651  15.964  20.851  0.00  0.00     0.022 A 
ENDROOT
BRANCH   8  11
HETATM   11  C   UNL     1      -1.678  12.703  22.485  0.00  0.00     0.260 C 
HETATM   12  O   UNL     1      -2.180  11.745  21.884  0.00  0.00    -0.267 OA
HETATM   13  N   UNL     1      -0.977  12.548  23.709  0.00  0.00    -0.318 N 
HETATM   14  C   UNL     1      -0.515  13.654  24.540  0.00  0.00     0.159 C 
BRANCH  13  15
HETATM   15  C   UNL     1      -0.764  11.225  24.254  0.00  0.00     0.037 A 
HETATM   16  C   UNL     1       0.143  10.337  23.673  0.00  0.00     0.032 A 
HETATM   17  C   UNL     1       0.324   9.041  24.179  0.00  0.00     0.031 A 
HETATM   18  C   UNL     1      -0.391   8.559  25.281  0.00  0.00     0.030 A 
HETATM   19  C   UNL     1      -1.251   9.477  25.898  0.00  0.00     0.031 A 
HETATM   20  C   UNL     1      -1.432  10.784  25.403  0.00  0.00     0.032 A 
BRANCH  18  21
HETATM   21  N   UNL     1      -0.300   7.246  25.694  0.00  0.00    -0.377 N 
HETATM   22  C   UNL     1      -0.146   6.108  24.776  0.00  0.00     0.149 C 
HETATM   23  C   UNL     1       0.925   5.148  25.320  0.00  0.00     0.187 C 
HETATM   24  O   UNL     1       0.628   4.723  26.662  0.00  0.00    -0.388 OA
HETATM   25  C   UNL     1       0.551   5.863  27.534  0.00  0.00     0.187 C 
HETATM   26  C   UNL     1      -0.545   6.846  27.091  0.00  0.00     0.149 C 
ENDBRANCH  18  21
ENDBRANCH  13  15
ENDBRANCH   8  11
BRANCH   7  27
HETATM   27  O   UNL     1      -4.168  13.744  21.118  0.00  0.00    -0.360 OA
HETATM   28  H   UNL     1      -4.691  13.981  20.335  0.00  0.00     0.217 HD
ENDBRANCH   7  27
BRANCH   1  29
HETATM   29  C   UNL     1       1.812  16.853  20.552  0.00  0.00     0.224 C 
HETATM   30  F   UNL     1       2.387  17.986  20.050  0.00  0.00    -0.243 F 
BRANCH  29  31
HETATM   31  C   UNL     1       2.438  15.651  19.848  0.00  0.00     0.039 C 
HETATM   32  C   UNL     1       2.992  14.645  20.846  0.00  0.00     0.008 C 
ENDBRANCH  29  31
ENDBRANCH   1  29
TORSDOF 6
ENDMDL
MODEL 3
REMARK VINA RESULT:    -7.750      1.375      1.732
REMARK INTER + INTRA:         -11.229
REMARK INTER:                 -10.513
REMARK INTRA:                  -0.716
REMARK UNBOUND:                -0.988
REMARK  6 active torsions:
REMARK  status: ('A' for Active; 'I' for Inactive)
REMARK    1  A    between atoms: C_2  and  C_3 
REMARK    2  A    between atoms: C_3  and  C_5 
REMARK    3  A    between atoms: C_11  and  O_12 
REMARK    4  A    between atoms: C_13  and  C_14 
REMARK       I    between atoms: C_14  and  N_16 
REMARK    5  A    between atoms: N_16  and  C_18 
REMARK    6  A    between atoms: C_21  and  N_22 
ROOT
HETATM    1  C   UNL     1      -1.778  16.659  20.787  0.00  0.00     0.101 A 
HETATM    2  N   UNL     1      -2.692  17.130  19.920  0.00  0.00    -0.175 NA
HETATM    3  N   UNL     1      -3.783  16.390  20.174  0.00  0.00    -0.277 N 
HETATM    4  H   UNL     1      -4.606  16.551  19.601  0.00  0.00     0.189 HD
HETATM    5  C   UNL     1      -3.624  15.469  21.170  0.00  0.00     0.065 A 
HETATM    6  C   UNL     1      -4.476  14.481  21.665  0.00  0.00     0.069 A 
HETATM    7  C   UNL     1      -3.979  13.638  22.676  0.00  0.00     0.083 A 
HETATM    8  C   UNL     1      -2.714  13.825  23.246  0.00  0.00     0.066 A 
HETATM    9  C   UNL     1      -1.882  14.839  22.697  0.00  0.00     0.035 A 
HETATM   10  C   UNL     1      -2.327  15.652  21.632  0.00  0.00     0.022 A 
ENDROOT
BRANCH   8  11
HETATM   11  C   UNL     1      -2.051  12.970  24.294  0.00  0.00     0.260 C 
HETATM   12  O   UNL     1      -1.905  13.550  25.377  0.00  0.00    -0.267 OA
HETATM   13  N   UNL     1      -1.657  11.622  24.096  0.00  0.00    -0.318 N 
HETATM   14  C   UNL     1      -1.651  10.946  22.804  0.00  0.00     0.159 C 
BRANCH  13  15
HETATM   15  C   UNL     1      -1.134  10.854  25.205  0.00  0.00     0.037 A 
HETATM   16  C   UNL     1      -1.941  10.494  26.285  0.00  0.00     0.032 A 
HETATM   17  C   UNL     1      -1.425   9.781  27.379  0.00  0.00     0.031 A 
HETATM   18  C   UNL     1      -0.082   9.397  27.458  0.00  0.00     0.030 A 
HETATM   19  C   UNL     1       0.706   9.705  26.341  0.00  0.00     0.031 A 
HETATM   20  C   UNL     1       0.195  10.412  25.235  0.00  0.00     0.032 A 
BRANCH  18  21
HETATM   21  N   UNL     1       0.444   8.809  28.589  0.00  0.00    -0.377 N 
HETATM   22  C   UNL     1       1.569   7.863  28.571  0.00  0.00     0.149 C 
HETATM   23  C   UNL     1       2.557   8.216  29.696  0.00  0.00     0.187 C 
HETATM   24  O   UNL     1       1.910   8.261  30.979  0.00  0.00    -0.388 OA
HETATM   25  C   UNL     1       0.861   9.243  30.968  0.00  0.00     0.187 C 
HETATM   26  C   UNL     1      -0.205   8.926  29.906  0.00  0.00     0.149 C 
ENDBRANCH  18  21
ENDBRANCH  13  15
ENDBRANCH   8  11
BRANCH   7  27
HETATM   27  O   UNL     1      -4.768  12.574  23.023  0.00  0.00    -0.360 OA
HETATM   28  H   UNL     1      -4.282  11.746  22.879  0.00  0.00     0.217 HD
ENDBRANCH   7  27
BRANCH   1  29
HETATM   29  C   UNL     1      -0.372  17.186  20.753  0.00  0.00     0.224 C 
HETATM   30  F   UNL     1      -0.204  18.043  19.701  0.00  0.00    -0.243 F 
BRANCH  29  31
HETATM   31  C   UNL     1       0.666  16.073  20.629  0.00  0.00     0.039 C 
HETATM   32  C   UNL     1       2.071  16.635  20.470  0.00  0.00     0.008 C 
ENDBRANCH  29  31
ENDBRANCH   1  29
TORSDOF 6
ENDMDL
MODEL 4
REMARK VINA RESULT:    -7.651      1.334      1.792
REMARK INTER + INTRA:         -11.099
REMARK INTER:                 -10.101
REMARK INTRA:                  -0.998
REMARK UNBOUND:                -0.988
REMARK  6 active torsions:
REMARK  status: ('A' for Active; 'I' for Inactive)
REMARK    1  A    between atoms: C_2  and  C_3 
REMARK    2  A    between atoms: C_3  and  C_5 
REMARK    3  A    between atoms: C_11  and  O_12 
REMARK    4  A    between atoms: C_13  and  C_14 
REMARK       I    between atoms: C_14  and  N_16 
REMARK    5  A    between atoms: N_16  and  C_18 
REMARK    6  A    between atoms: C_21  and  N_22 
ROOT
HETATM    1  C   UNL     1       0.462  16.968  20.421  0.00  0.00     0.101 A 
HETATM    2  N   UNL     1      -0.087  17.902  19.623  0.00  0.00    -0.175 NA
HETATM    3  N   UNL     1      -1.403  17.647  19.695  0.00  0.00    -0.277 N 
HETATM    4  H   UNL     1      -2.026  18.220  19.132  0.00  0.00     0.189 HD
HETATM    5  C   UNL     1      -1.736  16.601  20.507  0.00  0.00     0.065 A 
HETATM    6  C   UNL     1      -2.959  15.988  20.777  0.00  0.00     0.069 A 
HETATM    7  C   UNL     1      -2.955  14.870  21.632  0.00  0.00     0.083 A 
HETATM    8  C   UNL     1      -1.791  14.429  22.273  0.00  0.00     0.066 A 
HETATM    9  C   UNL     1      -0.568  15.081  21.954  0.00  0.00     0.035 A 
HETATM   10  C   UNL     1      -0.532  16.159  21.042  0.00  0.00     0.022 A 
ENDROOT
BRANCH   8  11
HETATM   11  C   UNL     1      -1.644  13.225  23.167  0.00  0.00     0.260 C 
HETATM   12  O   UNL     1      -1.949  12.163  22.611  0.00  0.00    -0.267 OA
HETATM   13  N   UNL     1      -1.171  13.274  24.504  0.00  0.00    -0.318 N 
HETATM   14  C   UNL     1      -0.959  14.503  25.259  0.00  0.00     0.159 C 
BRANCH  13  15
HETATM   15  C   UNL     1      -0.959  12.045  25.238  0.00  0.00     0.037 A 
HETATM   16  C   UNL     1      -1.858  11.617  26.216  0.00  0.00     0.032 A 
HETATM   17  C   UNL     1      -1.634  10.444  26.954  0.00  0.00     0.031 A 
HETATM   18  C   UNL     1      -0.503   9.643  26.763  0.00  0.00     0.030 A 
HETATM   19  C   UNL     1       0.361  10.043  25.735  0.00  0.00     0.031 A 
HETATM   20  C   UNL     1       0.139  11.214  24.983  0.00  0.00     0.032 A 
BRANCH  18  21
HETATM   21  N   UNL     1      -0.227   8.563  27.575  0.00  0.00    -0.377 N 
HETATM   22  C   UNL     1       0.366   8.678  28.916  0.00  0.00     0.149 C 
HETATM   23  C   UNL     1      -0.383   7.754  29.891  0.00  0.00     0.187 C 
HETATM   24  O   UNL     1      -0.407   6.393  29.426  0.00  0.00    -0.388 OA
HETATM   25  C   UNL     1      -1.052   6.322  28.143  0.00  0.00     0.187 C 
HETATM   26  C   UNL     1      -0.323   7.175  27.091  0.00  0.00     0.149 C 
ENDBRANCH  18  21
ENDBRANCH  13  15
ENDBRANCH   8  11
BRANCH   7  27
HETATM   27  O   UNL     1      -4.136  14.186  21.745  0.00  0.00    -0.360 OA
HETATM   28  H   UNL     1      -3.989  13.246  21.551  0.00  0.00     0.217 HD
ENDBRANCH   7  27
BRANCH   1  29
HETATM   29  C   UNL     1       1.956  16.867  20.537  0.00  0.00     0.224 C 
HETATM   30  F   UNL     1       2.556  17.980  20.018  0.00  0.00    -0.243 F 
BRANCH  29  31
HETATM   31  C   UNL     1       2.517  15.644  19.815  0.00  0.00     0.039 C 
HETATM   32  C   UNL     1       2.959  14.569  20.798  0.00  0.00     0.008 C 
ENDBRANCH  29  31
ENDBRANCH   1  29
TORSDOF 6
ENDMDL
MODEL 5
REMARK VINA RESULT:    -7.515      2.559      3.960
REMARK INTER + INTRA:         -10.919
REMARK INTER:                  -9.770
REMARK INTRA:                  -1.148
REMARK UNBOUND:                -0.988
REMARK  6 active torsions:
REMARK  status: ('A' for Active; 'I' for Inactive)
REMARK    1  A    between atoms: C_2  and  C_3 
REMARK    2  A    between atoms: C_3  and  C_5 
REMARK    3  A    between atoms: C_11  and  O_12 
REMARK    4  A    between atoms: C_13  and  C_14 
REMARK       I    between atoms: C_14  and  N_16 
REMARK    5  A    between atoms: N_16  and  C_18 
REMARK    6  A    between atoms: C_21  and  N_22 
ROOT
HETATM    1  C   UNL     1      -2.364  16.710  20.269  0.00  0.00     0.101 A 
HETATM    2  N   UNL     1      -1.953  17.889  19.770  0.00  0.00    -0.175 NA
HETATM    3  N   UNL     1      -0.629  17.884  19.991  0.00  0.00    -0.277 N 
HETATM    4  H   UNL     1      -0.102  18.710  19.721  0.00  0.00     0.189 HD
HETATM    5  C   UNL     1      -0.160  16.755  20.600  0.00  0.00     0.065 A 
HETATM    6  C   UNL     1       1.111  16.408  21.059  0.00  0.00     0.069 A 
HETATM    7  C   UNL     1       1.254  15.169  21.710  0.00  0.00     0.083 A 
HETATM    8  C   UNL     1       0.194  14.260  21.820  0.00  0.00     0.066 A 
HETATM    9  C   UNL     1      -1.082  14.668  21.345  0.00  0.00     0.035 A 
HETATM   10  C   UNL     1      -1.271  15.936  20.754  0.00  0.00     0.022 A 
ENDROOT
BRANCH   8  11
HETATM   11  C   UNL     1       0.204  12.931  22.529  0.00  0.00     0.260 C 
HETATM   12  O   UNL     1       0.345  11.969  21.762  0.00  0.00    -0.267 OA
HETATM   13  N   UNL     1       0.100  12.772  23.934  0.00  0.00    -0.318 N 
HETATM   14  C   UNL     1      -0.233  13.846  24.863  0.00  0.00     0.159 C 
BRANCH  13  15
HETATM   15  C   UNL     1       0.237  11.456  24.523  0.00  0.00     0.037 A 
HETATM   16  C   UNL     1       1.492  10.907  24.792  0.00  0.00     0.032 A 
HETATM   17  C   UNL     1       1.626   9.617  25.328  0.00  0.00     0.031 A 
HETATM   18  C   UNL     1       0.523   8.806  25.616  0.00  0.00     0.030 A 
HETATM   19  C   UNL     1      -0.734   9.389  25.404  0.00  0.00     0.031 A 
HETATM   20  C   UNL     1      -0.878  10.687  24.875  0.00  0.00     0.032 A 
BRANCH  18  21
HETATM   21  N   UNL     1       0.666   7.497  26.024  0.00  0.00    -0.377 N 
HETATM   22  C   UNL     1      -0.316   6.787  26.857  0.00  0.00     0.149 C 
HETATM   23  C   UNL     1      -0.548   5.376  26.290  0.00  0.00     0.187 C 
HETATM   24  O   UNL     1       0.683   4.642  26.163  0.00  0.00    -0.388 OA
HETATM   25  C   UNL     1       1.586   5.342  25.291  0.00  0.00     0.187 C 
HETATM   26  C   UNL     1       1.918   6.746  25.822  0.00  0.00     0.149 C 
ENDBRANCH  18  21
ENDBRANCH  13  15
ENDBRANCH   8  11
BRANCH   7  27
HETATM   27  O   UNL     1       2.466  14.928  22.300  0.00  0.00    -0.360 OA
HETATM   28  H   UNL     1       2.946  14.251  21.795  0.00  0.00     0.217 HD
ENDBRANCH   7  27
BRANCH   1  29
HETATM   29  C   UNL     1      -3.828  16.374  20.288  0.00  0.00     0.224 C 
HETATM   30  F   UNL     1      -4.209  15.950  21.530  0.00  0.00    -0.243 F 
BRANCH  29  31
HETATM   31  C   UNL     1      -4.191  15.284  19.282  0.00  0.00     0.039 C 
HETATM   32  C   UNL     1      -4.550  13.979  19.977  0.00  0.00     0.008 C 
ENDBRANCH  29  31
ENDBRANCH   1  29
TORSDOF 6
ENDMDL
MODEL 6
REMARK VINA RESULT:    -7.510      1.662      2.242
REMARK INTER + INTRA:         -10.913
REMARK INTER:                 -10.351
REMARK INTRA:                  -0.561
REMARK UNBOUND:                -0.988
REMARK  6 active torsions:
REMARK  status: ('A' for Active; 'I' for Inactive)
REMARK    1  A    between atoms: C_2  and  C_3 
REMARK    2  A    between atoms: C_3  and  C_5 
REMARK    3  A    between atoms: C_11  and  O_12 
REMARK    4  A    between atoms: C_13  and  C_14 
REMARK       I    between atoms: C_14  and  N_16 
REMARK    5  A    between atoms: N_16  and  C_18 
REMARK    6  A    between atoms: C_21  and  N_22 
ROOT
HETATM    1  C   UNL     1      -2.100  16.760  20.388  0.00  0.00     0.101 A 
HETATM    2  N   UNL     1      -3.152  17.210  19.682  0.00  0.00    -0.175 NA
HETATM    3  N   UNL     1      -4.170  16.442  20.103  0.00  0.00    -0.277 N 
HETATM    4  H   UNL     1      -5.079  16.583  19.670  0.00  0.00     0.189 HD
HETATM    5  C   UNL     1      -3.831  15.522  21.054  0.00  0.00     0.065 A 
HETATM    6  C   UNL     1      -4.568  14.512  21.672  0.00  0.00     0.069 A 
HETATM    7  C   UNL     1      -3.895  13.679  22.585  0.00  0.00     0.083 A 
HETATM    8  C   UNL     1      -2.559  13.897  22.946  0.00  0.00     0.066 A 
HETATM    9  C   UNL     1      -1.851  14.932  22.278  0.00  0.00     0.035 A 
HETATM   10  C   UNL     1      -2.481  15.737  21.303  0.00  0.00     0.022 A 
ENDROOT
BRANCH   8  11
HETATM   11  C   UNL     1      -1.716  13.056  23.868  0.00  0.00     0.260 C 
HETATM   12  O   UNL     1      -1.450  13.620  24.937  0.00  0.00    -0.267 OA
HETATM   13  N   UNL     1      -1.288  11.734  23.580  0.00  0.00    -0.318 N 
HETATM   14  C   UNL     1      -1.428  11.087  22.281  0.00  0.00     0.159 C 
BRANCH  13  15
HETATM   15  C   UNL     1      -0.578  10.972  24.585  0.00  0.00     0.037 A 
HETATM   16  C   UNL     1       0.814  10.870  24.571  0.00  0.00     0.032 A 
HETATM   17  C   UNL     1       1.501  10.100  25.523  0.00  0.00     0.031 A 
HETATM   18  C   UNL     1       0.839   9.389  26.531  0.00  0.00     0.030 A 
HETATM   19  C   UNL     1      -0.552   9.549  26.578  0.00  0.00     0.031 A 
HETATM   20  C   UNL     1      -1.249  10.327  25.632  0.00  0.00     0.032 A 
BRANCH  18  21
HETATM   21  N   UNL     1       1.510   8.538  27.384  0.00  0.00    -0.377 N 
HETATM   22  C   UNL     1       2.694   7.757  26.998  0.00  0.00     0.149 C 
HETATM   23  C   UNL     1       3.754   7.846  28.109  0.00  0.00     0.187 C 
HETATM   24  O   UNL     1       3.227   7.433  29.382  0.00  0.00    -0.388 OA
HETATM   25  C   UNL     1       2.113   8.263  29.748  0.00  0.00     0.187 C 
HETATM   26  C   UNL     1       0.979   8.182  28.712  0.00  0.00     0.149 C 
ENDBRANCH  18  21
ENDBRANCH  13  15
ENDBRANCH   8  11
BRANCH   7  27
HETATM   27  O   UNL     1      -4.591  12.594  23.047  0.00  0.00    -0.360 OA
HETATM   28  H   UNL     1      -4.221  12.306  23.897  0.00  0.00     0.217 HD
ENDBRANCH   7  27
BRANCH   1  29
HETATM   29  C   UNL     1      -0.731  17.322  20.132  0.00  0.00     0.224 C 
HETATM   30  F   UNL     1      -0.519  17.482  18.791  0.00  0.00    -0.243 F 
BRANCH  29  31
HETATM   31  C   UNL     1       0.379  16.432  20.686  0.00  0.00     0.039 C 
HETATM   32  C   UNL     1       1.752  17.050  20.467  0.00  0.00     0.008 C 
ENDBRANCH  29  31
ENDBRANCH   1  29
TORSDOF 6
ENDMDL
MODEL 7
REMARK VINA RESULT:    -7.387      2.319      3.693
REMARK INTER + INTRA:         -10.750
REMARK INTER:                  -9.791
REMARK INTRA:                  -0.959
REMARK UNBOUND:                -0.988
REMARK  6 active torsions:
REMARK  status: ('A' for Active; 'I' for Inactive)
REMARK    1  A    between atoms: C_2  and  C_3 
REMARK    2  A    between atoms: C_3  and  C_5 
REMARK    3  A    between atoms: C_11  and  O_12 
REMARK    4  A    between atoms: C_13  and  C_14 
REMARK       I    between atoms: C_14  and  N_16 
REMARK    5  A    between atoms: N_16  and  C_18 
REMARK    6  A    between atoms: C_21  and  N_22 
ROOT
HETATM    1  C   UNL     1      -3.183  16.056  20.203  0.00  0.00     0.101 A 
HETATM    2  N   UNL     1      -3.021  17.144  19.430  0.00  0.00    -0.175 NA
HETATM    3  N   UNL     1      -1.767  17.542  19.700  0.00  0.00    -0.277 N 
HETATM    4  H   UNL     1      -1.432  18.387  19.246  0.00  0.00     0.189 HD
HETATM    5  C   UNL     1      -1.106  16.760  20.604  0.00  0.00     0.065 A 
HETATM    6  C   UNL     1       0.153  16.883  21.192  0.00  0.00     0.069 A 
HETATM    7  C   UNL     1       0.522  15.922  22.151  0.00  0.00     0.083 A 
HETATM    8  C   UNL     1      -0.289  14.820  22.450  0.00  0.00     0.066 A 
HETATM    9  C   UNL     1      -1.567  14.749  21.831  0.00  0.00     0.035 A 
HETATM   10  C   UNL     1      -1.994  15.740  20.920  0.00  0.00     0.022 A 
ENDROOT
BRANCH   8  11
HETATM   11  C   UNL     1      -0.032  13.753  23.482  0.00  0.00     0.260 C 
HETATM   12  O   UNL     1       0.112  14.205  24.626  0.00  0.00    -0.267 OA
HETATM   13  N   UNL     1       0.009  12.363  23.205  0.00  0.00    -0.318 N 
HETATM   14  C   UNL     1       0.014  11.790  21.863  0.00  0.00     0.159 C 
BRANCH  13  15
HETATM   15  C   UNL     1       0.148  11.415  24.290  0.00  0.00     0.037 A 
HETATM   16  C   UNL     1      -0.946  11.036  25.068  0.00  0.00     0.032 A 
HETATM   17  C   UNL     1      -0.806  10.146  26.144  0.00  0.00     0.031 A 
HETATM   18  C   UNL     1       0.428   9.594  26.505  0.00  0.00     0.030 A 
HETATM   19  C   UNL     1       1.510   9.928  25.679  0.00  0.00     0.031 A 
HETATM   20  C   UNL     1       1.376  10.814  24.591  0.00  0.00     0.032 A 
BRANCH  18  21
HETATM   21  N   UNL     1       0.580   8.820  27.636  0.00  0.00    -0.377 N 
HETATM   22  C   UNL     1       1.553   7.725  27.754  0.00  0.00     0.149 C 
HETATM   23  C   UNL     1       2.262   7.811  29.117  0.00  0.00     0.187 C 
HETATM   24  O   UNL     1       1.322   7.818  30.207  0.00  0.00    -0.388 OA
HETATM   25  C   UNL     1       0.433   8.941  30.083  0.00  0.00     0.187 C 
HETATM   26  C   UNL     1      -0.361   8.896  28.767  0.00  0.00     0.149 C 
ENDBRANCH  18  21
ENDBRANCH  13  15
ENDBRANCH   8  11
BRANCH   7  27
HETATM   27  O   UNL     1       1.685  16.159  22.834  0.00  0.00    -0.360 OA
HETATM   28  H   UNL     1       1.491  16.271  23.779  0.00  0.00     0.217 HD
ENDBRANCH   7  27
BRANCH   1  29
HETATM   29  C   UNL     1      -4.514  15.361  20.247  0.00  0.00     0.224 C 
HETATM   30  F   UNL     1      -4.995  15.323  21.526  0.00  0.00    -0.243 F 
BRANCH  29  31
HETATM   31  C   UNL     1      -4.443  13.928  19.723  0.00  0.00     0.039 C 
HETATM   32  C   UNL     1      -5.520  13.660  18.683  0.00  0.00     0.008 C 
ENDBRANCH  29  31
ENDBRANCH   1  29
TORSDOF 6
ENDMDL
MODEL 8
REMARK VINA RESULT:    -7.018      2.536      3.175
REMARK INTER + INTRA:         -10.262
REMARK INTER:                  -9.275
REMARK INTRA:                  -0.988
REMARK UNBOUND:                -0.988
REMARK  6 active torsions:
REMARK  status: ('A' for Active; 'I' for Inactive)
REMARK    1  A    between atoms: C_2  and  C_3 
REMARK    2  A    between atoms: C_3  and  C_5 
REMARK    3  A    between atoms: C_11  and  O_12 
REMARK    4  A    between atoms: C_13  and  C_14 
REMARK       I    between atoms: C_14  and  N_16 
REMARK    5  A    between atoms: N_16  and  C_18 
REMARK    6  A    between atoms: C_21  and  N_22 
ROOT
HETATM    1  C   UNL     1      -0.499  16.145  21.286  0.00  0.00     0.101 A 
HETATM    2  N   UNL     1      -1.380  16.778  20.492  0.00  0.00    -0.175 NA
HETATM    3  N   UNL     1      -2.310  15.843  20.240  0.00  0.00    -0.277 N 
HETATM    4  H   UNL     1      -3.073  16.092  19.617  0.00  0.00     0.189 HD
HETATM    5  C   UNL     1      -2.080  14.637  20.839  0.00  0.00     0.065 A 
HETATM    6  C   UNL     1      -2.753  13.419  20.762  0.00  0.00     0.069 A 
HETATM    7  C   UNL     1      -2.214  12.329  21.470  0.00  0.00     0.083 A 
HETATM    8  C   UNL     1      -1.097  12.462  22.304  0.00  0.00     0.066 A 
HETATM    9  C   UNL     1      -0.441  13.723  22.337  0.00  0.00     0.035 A 
HETATM   10  C   UNL     1      -0.917  14.815  21.579  0.00  0.00     0.022 A 
ENDROOT
BRANCH   8  11
HETATM   11  C   UNL     1      -0.398  11.372  23.073  0.00  0.00     0.260 C 
HETATM   12  O   UNL     1       0.214  10.578  22.347  0.00  0.00    -0.267 OA
HETATM   13  N   UNL     1      -0.397  11.264  24.487  0.00  0.00    -0.318 N 
HETATM   14  C   UNL     1      -1.231  12.065  25.376  0.00  0.00     0.159 C 
BRANCH  13  15
HETATM   15  C   UNL     1       0.402  10.244  25.131  0.00  0.00     0.037 A 
HETATM   16  C   UNL     1       1.779  10.398  25.302  0.00  0.00     0.032 A 
HETATM   17  C   UNL     1       2.561   9.394  25.893  0.00  0.00     0.031 A 
HETATM   18  C   UNL     1       2.016   8.183  26.336  0.00  0.00     0.030 A 
HETATM   19  C   UNL     1       0.625   8.062  26.221  0.00  0.00     0.031 A 
HETATM   20  C   UNL     1      -0.169   9.070  25.638  0.00  0.00     0.032 A 
BRANCH  18  21
HETATM   21  N   UNL     1       2.807   7.153  26.800  0.00  0.00    -0.377 N 
HETATM   22  C   UNL     1       3.421   6.138  25.932  0.00  0.00     0.149 C 
HETATM   23  C   UNL     1       4.883   5.914  26.356  0.00  0.00     0.187 C 
HETATM   24  O   UNL     1       4.988   5.569  27.748  0.00  0.00    -0.388 OA
HETATM   25  C   UNL     1       4.433   6.618  28.559  0.00  0.00     0.187 C 
HETATM   26  C   UNL     1       2.949   6.862  28.238  0.00  0.00     0.149 C 
ENDBRANCH  18  21
ENDBRANCH  13  15
ENDBRANCH   8  11
BRANCH   7  27
HETATM   27  O   UNL     1      -2.793  11.109  21.242  0.00  0.00    -0.360 OA
HETATM   28  H   UNL     1      -3.460  11.189  20.542  0.00  0.00     0.217 HD
ENDBRANCH   7  27
BRANCH   1  29
HETATM   29  C   UNL     1       0.756  16.847  21.722  0.00  0.00     0.224 C 
HETATM   30  F   UNL     1       0.460  17.893  22.550  0.00  0.00    -0.243 F 
BRANCH  29  31
HETATM   31  C   UNL     1       1.562  17.388  20.543  0.00  0.00     0.039 C 
HETATM   32  C   UNL     1       2.649  16.413  20.115  0.00  0.00     0.008 C 
ENDBRANCH  29  31
ENDBRANCH   1  29
TORSDOF 6
ENDMDL
MODEL 9
REMARK VINA RESULT:    -6.995      6.201      9.952
REMARK INTER + INTRA:         -10.232
REMARK INTER:                  -9.146
REMARK INTRA:                  -1.086
REMARK UNBOUND:                -0.988
REMARK  6 active torsions:
REMARK  status: ('A' for Active; 'I' for Inactive)
REMARK    1  A    between atoms: C_2  and  C_3 
REMARK    2  A    between atoms: C_3  and  C_5 
REMARK    3  A    between atoms: C_11  and  O_12 
REMARK    4  A    between atoms: C_13  and  C_14 
REMARK       I    between atoms: C_14  and  N_16 
REMARK    5  A    between atoms: N_16  and  C_18 
REMARK    6  A    between atoms: C_21  and  N_22 
ROOT
HETATM    1  C   UNL     1       6.331   5.617  21.097  0.00  0.00     0.101 A 
HETATM    2  N   UNL     1       7.101   4.517  21.018  0.00  0.00    -0.175 NA
HETATM    3  N   UNL     1       6.701   3.772  22.061  0.00  0.00    -0.277 N 
HETATM    4  H   UNL     1       7.179   2.891  22.224  0.00  0.00     0.189 HD
HETATM    5  C   UNL     1       5.702   4.332  22.807  0.00  0.00     0.065 A 
HETATM    6  C   UNL     1       5.083   3.919  23.987  0.00  0.00     0.069 A 
HETATM    7  C   UNL     1       4.110   4.769  24.545  0.00  0.00     0.083 A 
HETATM    8  C   UNL     1       3.696   5.945  23.908  0.00  0.00     0.066 A 
HETATM    9  C   UNL     1       4.368   6.325  22.714  0.00  0.00     0.035 A 
HETATM   10  C   UNL     1       5.399   5.528  22.170  0.00  0.00     0.022 A 
ENDROOT
BRANCH   8  11
HETATM   11  C   UNL     1       2.706   6.958  24.420  0.00  0.00     0.260 C 
HETATM   12  O   UNL     1       3.240   7.917  24.992  0.00  0.00    -0.267 OA
HETATM   13  N   UNL     1       1.301   6.864  24.246  0.00  0.00    -0.318 N 
HETATM   14  C   UNL     1       0.611   5.686  23.734  0.00  0.00     0.159 C 
BRANCH  13  15
HETATM   15  C   UNL     1       0.448   7.951  24.676  0.00  0.00     0.037 A 
HETATM   16  C   UNL     1      -0.064   8.004  25.974  0.00  0.00     0.032 A 
HETATM   17  C   UNL     1      -0.921   9.037  26.381  0.00  0.00     0.031 A 
HETATM   18  C   UNL     1      -1.319  10.065  25.519  0.00  0.00     0.030 A 
HETATM   19  C   UNL     1      -0.750  10.042  24.239  0.00  0.00     0.031 A 
HETATM   20  C   UNL     1       0.120   9.013  23.824  0.00  0.00     0.032 A 
BRANCH  18  21
HETATM   21  N   UNL     1      -2.258  11.006  25.888  0.00  0.00    -0.377 N 
HETATM   22  C   UNL     1      -2.318  12.365  25.330  0.00  0.00     0.149 C 
HETATM   23  C   UNL     1      -3.778  12.721  24.999  0.00  0.00     0.187 C 
HETATM   24  O   UNL     1      -4.637  12.568  26.143  0.00  0.00    -0.388 OA
HETATM   25  C   UNL     1      -4.594  11.211  26.614  0.00  0.00     0.187 C 
HETATM   26  C   UNL     1      -3.171  10.795  27.025  0.00  0.00     0.149 C 
ENDBRANCH  18  21
ENDBRANCH  13  15
ENDBRANCH   8  11
BRANCH   7  27
HETATM   27  O   UNL     1       3.642   4.426  25.786  0.00  0.00    -0.360 OA
HETATM   28  H   UNL     1       3.239   5.201  26.208  0.00  0.00     0.217 HD
ENDBRANCH   7  27
BRANCH   1  29
HETATM   29  C   UNL     1       6.544   6.750  20.135  0.00  0.00     0.224 C 
HETATM   30  F   UNL     1       7.032   7.849  20.785  0.00  0.00    -0.243 F 
BRANCH  29  31
HETATM   31  C   UNL     1       5.259   7.155  19.416  0.00  0.00     0.039 C 
HETATM   32  C   UNL     1       4.734   6.032  18.534  0.00  0.00     0.008 C 
ENDBRANCH  29  31
ENDBRANCH   1  29
TORSDOF 6
ENDMDL
