REMARK  6 active torsions:
REMARK  status: ('A' for Active; 'I' for Inactive)
REMARK    1  A    between atoms: C_2  and  C_3 
REMARK    2  A    between atoms: C_3  and  C_5 
REMARK    3  A    between atoms: C_11  and  O_12 
REMARK    4  A    between atoms: C_13  and  C_14 
REMARK       I    between atoms: C_14  and  N_16 
REMARK    5  A    between atoms: N_16  and  C_18 
REMARK    6  A    between atoms: C_21  and  N_22 
ROOT
HETATM    1  C   UNL     1       4.545  -1.480  -1.558  0.00  0.00     0.101 A 
HETATM    2  N   UNL     1       5.192  -0.303  -1.618  0.00  0.00    -0.175 NA
HETATM    3  N   UNL     1       6.449  -0.612  -1.262  0.00  0.00    -0.277 N 
HETATM    4  H   UNL     1       7.123   0.146  -1.202  0.00  0.00     0.189 HD
HETATM    5  C   UNL     1       6.651  -1.934  -0.983  0.00  0.00     0.065 A 
HETATM    6  C   UNL     1       7.769  -2.623  -0.513  0.00  0.00     0.069 A 
HETATM    7  C   UNL     1       7.630  -4.001  -0.266  0.00  0.00     0.083 A 
HETATM    8  C   UNL     1       6.450  -4.695  -0.563  0.00  0.00     0.066 A 
HETATM    9  C   UNL     1       5.337  -3.943  -1.029  0.00  0.00     0.035 A 
HETATM   10  C   UNL     1       5.426  -2.546  -1.216  0.00  0.00     0.022 A 
ENDROOT
BRANCH   8  11
HETATM   11  C   UNL     1       6.159  -6.150  -0.304  0.00  0.00     0.260 C 
HETATM   12  O   UNL     1       5.018  -6.350   0.132  0.00  0.00    -0.267 OA
HETATM   13  N   UNL     1       7.070  -7.207  -0.559  0.00  0.00    -0.318 N 
HETATM   14  C   UNL     1       8.473  -7.019  -0.910  0.00  0.00     0.159 C 
BRANCH  13  15
HETATM   15  C   UNL     1       6.648  -8.580  -0.383  0.00  0.00     0.037 A 
HETATM   16  C   UNL     1       5.347  -8.985  -0.685  0.00  0.00     0.032 A 
HETATM   17  C   UNL     1       4.926 -10.308  -0.480  0.00  0.00     0.031 A 
HETATM   18  C   UNL     1       5.773 -11.292   0.042  0.00  0.00     0.030 A 
HETATM   19  C   UNL     1       7.095 -10.894   0.281  0.00  0.00     0.031 A 
HETATM   20  C   UNL     1       7.529  -9.570   0.069  0.00  0.00     0.032 A 
BRANCH  18  21
HETATM   21  N   UNL     1       5.318 -12.555   0.357  0.00  0.00    -0.377 N 
HETATM   22  C   UNL     1       6.142 -13.769   0.264  0.00  0.00     0.149 C 
HETATM   23  C   UNL     1       5.930 -14.633   1.519  0.00  0.00     0.187 C 
HETATM   24  O   UNL     1       4.540 -14.939   1.727  0.00  0.00    -0.388 OA
HETATM   25  C   UNL     1       3.785 -13.725   1.876  0.00  0.00     0.187 C 
HETATM   26  C   UNL     1       3.896 -12.829   0.631  0.00  0.00     0.149 C 
ENDBRANCH  18  21
ENDBRANCH  13  15
ENDBRANCH   8  11
BRANCH   7  27
HETATM   27  O   UNL     1       8.684  -4.618   0.353  0.00  0.00    -0.360 OA
HETATM   28  H   UNL     1       9.439  -4.009   0.398  0.00  0.00     0.217 HD
ENDBRANCH   7  27
BRANCH   1  29
HETATM   29  C   UNL     1       3.065  -1.535  -1.809  0.00  0.00     0.224 C 
HETATM   30  F   UNL     1       2.496  -2.563  -1.111  0.00  0.00    -0.243 F 
BRANCH  29  31
HETATM   31  C   UNL     1       2.729  -1.721  -3.287  0.00  0.00     0.039 C 
HETATM   32  C   UNL     1       1.227  -1.689  -3.527  0.00  0.00     0.008 C 
ENDBRANCH  29  31
ENDBRANCH   1  29
TORSDOF 6
