MODEL 1
REMARK VINA RESULT:    -8.694      0.000      0.000
REMARK INTER + INTRA:         -11.218
REMARK INTER:                 -10.190
REMARK INTRA:                  -1.028
REMARK UNBOUND:                -0.999
REMARK  3 active torsions:
REMARK  status: ('A' for Active; 'I' for Inactive)
REMARK       I    between atoms: C_2  and  N_3 
REMARK    1  A    between atoms: C_2  and  C_26 
REMARK    2  A    between atoms: N_3  and  C_4 
REMARK    3  A    between atoms: C_16  and  C_17 
ROOT
HETATM    1  C   UNL     1       4.128   7.440  22.244  0.00  0.00     0.153 A 
HETATM    2  C   UNL     1       3.827   8.767  22.902  0.00  0.00    -0.020 A 
HETATM    3  C   UNL     1       4.083  10.032  22.382  0.00  0.00     0.010 A 
HETATM    4  C   UNL     1       3.792  11.142  23.169  0.00  0.00     0.001 A 
HETATM    5  C   UNL     1       3.286  10.970  24.461  0.00  0.00     0.001 A 
HETATM    6  C   UNL     1       3.044   9.688  24.975  0.00  0.00     0.013 A 
HETATM    7  C   UNL     1       3.272   8.570  24.187  0.00  0.00    -0.016 A 
HETATM    8  C   UNL     1       3.084   7.131  24.419  0.00  0.00    -0.003 A 
HETATM    9  C   UNL     1       3.598   6.455  23.272  0.00  0.00    -0.019 A 
HETATM   10  C   UNL     1       3.625   5.071  23.165  0.00  0.00     0.010 A 
HETATM   11  C   UNL     1       3.112   4.324  24.215  0.00  0.00     0.002 A 
HETATM   12  C   UNL     1       2.571   4.964  25.343  0.00  0.00     0.016 A 
HETATM   13  C   UNL     1       2.535   6.375  25.469  0.00  0.00     0.022 A 
ENDROOT
BRANCH   1  14
HETATM   14  N   UNL     1       3.458   7.317  20.971  0.00  0.00    -0.344 N 
HETATM   15  C   UNL     1       4.137   7.510  19.789  0.00  0.00     0.252 C 
HETATM   16  O   UNL     1       5.324   7.808  19.730  0.00  0.00    -0.268 OA
HETATM   17  H   UNL     1       2.466   7.132  20.989  0.00  0.00     0.163 HD
BRANCH  15  18
HETATM   18  C   UNL     1       3.346   7.388  18.539  0.00  0.00     0.034 A 
HETATM   19  C   UNL     1       3.438   6.275  17.704  0.00  0.00     0.036 A 
HETATM   20  C   UNL     1       2.667   6.267  16.553  0.00  0.00     0.117 A 
HETATM   21  N   UNL     1       1.837   7.269  16.197  0.00  0.00    -0.273 NA
HETATM   22  C   UNL     1       1.781   8.341  17.016  0.00  0.00     0.117 A 
HETATM   23  C   UNL     1       2.513   8.449  18.184  0.00  0.00     0.036 A 
ENDBRANCH  15  18
ENDBRANCH   1  14
BRANCH  13  24
HETATM   24  C   UNL     1       1.902   6.963  26.659  0.00  0.00     0.140 C 
HETATM   25  N   UNL     1       2.483   6.998  27.914  0.00  0.00    -0.337 N 
HETATM   26  C   UNL     1       1.671   7.711  28.757  0.00  0.00     0.080 A 
HETATM   27  H   UNL     1       3.392   6.624  28.146  0.00  0.00     0.167 HD
HETATM   28  C   UNL     1       1.774   8.101  30.080  0.00  0.00     0.148 A 
HETATM   29  C   UNL     1       0.586   8.060  27.971  0.00  0.00     0.088 A 
HETATM   30  N   UNL     1       0.799   8.891  30.595  0.00  0.00    -0.271 NA
HETATM   31  C   UNL     1      -0.241   9.264  29.809  0.00  0.00     0.118 A 
HETATM   32  C   UNL     1      -0.415   8.876  28.491  0.00  0.00     0.053 A 
HETATM   33  N   UNL     1       0.708   7.519  26.719  0.00  0.00    -0.228 NA
ENDBRANCH  13  24
TORSDOF 3
ENDMDL
MODEL 2
REMARK VINA RESULT:    -8.483      0.553      1.116
REMARK INTER + INTRA:         -10.970
REMARK INTER:                 -10.008
REMARK INTRA:                  -0.962
REMARK UNBOUND:                -0.999
REMARK  3 active torsions:
REMARK  status: ('A' for Active; 'I' for Inactive)
REMARK       I    between atoms: C_2  and  N_3 
REMARK    1  A    between atoms: C_2  and  C_26 
REMARK    2  A    between atoms: N_3  and  C_4 
REMARK    3  A    between atoms: C_16  and  C_17 
ROOT
HETATM    1  C   UNL     1       4.134   7.130  21.975  0.00  0.00     0.153 A 
HETATM    2  C   UNL     1       3.968   8.515  22.558  0.00  0.00    -0.020 A 
HETATM    3  C   UNL     1       4.296   9.722  21.946  0.00  0.00     0.010 A 
HETATM    4  C   UNL     1       4.130  10.897  22.672  0.00  0.00     0.001 A 
HETATM    5  C   UNL     1       3.676  10.846  23.993  0.00  0.00     0.001 A 
HETATM    6  C   UNL     1       3.362   9.622  24.599  0.00  0.00     0.013 A 
HETATM    7  C   UNL     1       3.464   8.443  23.877  0.00  0.00    -0.016 A 
HETATM    8  C   UNL     1       3.177   7.040  24.209  0.00  0.00    -0.003 A 
HETATM    9  C   UNL     1       3.581   6.256  23.088  0.00  0.00    -0.019 A 
HETATM   10  C   UNL     1       3.495   4.871  23.070  0.00  0.00     0.010 A 
HETATM   11  C   UNL     1       2.978   4.233  24.188  0.00  0.00     0.002 A 
HETATM   12  C   UNL     1       2.545   4.982  25.294  0.00  0.00     0.016 A 
HETATM   13  C   UNL     1       2.624   6.397  25.330  0.00  0.00     0.022 A 
ENDROOT
BRANCH   1  14
HETATM   14  N   UNL     1       3.395   6.984  20.744  0.00  0.00    -0.344 N 
HETATM   15  C   UNL     1       4.021   7.083  19.522  0.00  0.00     0.252 C 
HETATM   16  O   UNL     1       5.218   7.313  19.391  0.00  0.00    -0.268 OA
HETATM   17  H   UNL     1       2.396   6.853  20.819  0.00  0.00     0.163 HD
BRANCH  15  18
HETATM   18  C   UNL     1       3.163   6.945  18.319  0.00  0.00     0.034 A 
HETATM   19  C   UNL     1       3.022   5.736  17.638  0.00  0.00     0.036 A 
HETATM   20  C   UNL     1       2.208   5.718  16.518  0.00  0.00     0.117 A 
HETATM   21  N   UNL     1       1.546   6.798  16.053  0.00  0.00    -0.273 NA
HETATM   22  C   UNL     1       1.714   7.958  16.723  0.00  0.00     0.117 A 
HETATM   23  C   UNL     1       2.507   8.083  17.847  0.00  0.00     0.036 A 
ENDBRANCH  15  18
ENDBRANCH   1  14
BRANCH  13  24
HETATM   24  C   UNL     1       2.098   7.105  26.506  0.00  0.00     0.140 C 
HETATM   25  N   UNL     1       0.951   7.880  26.500  0.00  0.00    -0.337 N 
HETATM   26  C   UNL     1       0.694   8.297  27.780  0.00  0.00     0.080 A 
HETATM   27  H   UNL     1       0.364   8.045  25.696  0.00  0.00     0.167 HD
HETATM   28  C   UNL     1      -0.324   9.034  28.358  0.00  0.00     0.148 A 
HETATM   29  C   UNL     1       1.737   7.775  28.525  0.00  0.00     0.088 A 
HETATM   30  N   UNL     1      -0.313   9.200  29.705  0.00  0.00    -0.271 NA
HETATM   31  C   UNL     1       0.689   8.651  30.435  0.00  0.00     0.118 A 
HETATM   32  C   UNL     1       1.752   7.936  29.908  0.00  0.00     0.053 A 
HETATM   33  N   UNL     1       2.627   7.124  27.713  0.00  0.00    -0.228 NA
ENDBRANCH  13  24
TORSDOF 3
ENDMDL
MODEL 3
REMARK VINA RESULT:    -8.404      1.374      1.619
REMARK INTER + INTRA:         -10.877
REMARK INTER:                  -9.836
REMARK INTRA:                  -1.041
REMARK UNBOUND:                -0.999
REMARK  3 active torsions:
REMARK  status: ('A' for Active; 'I' for Inactive)
REMARK       I    between atoms: C_2  and  N_3 
REMARK    1  A    between atoms: C_2  and  C_26 
REMARK    2  A    between atoms: N_3  and  C_4 
REMARK    3  A    between atoms: C_16  and  C_17 
ROOT
HETATM    1  C   UNL     1       4.016   6.677  21.457  0.00  0.00     0.153 A 
HETATM    2  C   UNL     1       4.021   8.042  22.105  0.00  0.00    -0.020 A 
HETATM    3  C   UNL     1       4.241   9.263  21.475  0.00  0.00     0.010 A 
HETATM    4  C   UNL     1       4.272  10.414  22.256  0.00  0.00     0.001 A 
HETATM    5  C   UNL     1       4.117  10.324  23.642  0.00  0.00     0.001 A 
HETATM    6  C   UNL     1       3.909   9.084  24.264  0.00  0.00     0.013 A 
HETATM    7  C   UNL     1       3.817   7.932  23.500  0.00  0.00    -0.016 A 
HETATM    8  C   UNL     1       3.570   6.523  23.843  0.00  0.00    -0.003 A 
HETATM    9  C   UNL     1       3.696   5.774  22.636  0.00  0.00    -0.019 A 
HETATM   10  C   UNL     1       3.569   4.392  22.593  0.00  0.00     0.010 A 
HETATM   11  C   UNL     1       3.291   3.724  23.777  0.00  0.00     0.002 A 
HETATM   12  C   UNL     1       3.132   4.441  24.975  0.00  0.00     0.016 A 
HETATM   13  C   UNL     1       3.258   5.851  25.037  0.00  0.00     0.022 A 
ENDROOT
BRANCH   1  14
HETATM   14  N   UNL     1       3.021   6.591  20.414  0.00  0.00    -0.344 N 
HETATM   15  C   UNL     1       3.384   6.554  19.087  0.00  0.00     0.252 C 
HETATM   16  O   UNL     1       4.546   6.607  18.700  0.00  0.00    -0.268 OA
HETATM   17  H   UNL     1       2.053   6.607  20.699  0.00  0.00     0.163 HD
BRANCH  15  18
HETATM   18  C   UNL     1       2.281   6.496  18.095  0.00  0.00     0.034 A 
HETATM   19  C   UNL     1       0.960   6.242  18.464  0.00  0.00     0.036 A 
HETATM   20  C   UNL     1       0.008   6.195  17.459  0.00  0.00     0.117 A 
HETATM   21  N   UNL     1       0.285   6.381  16.152  0.00  0.00    -0.273 NA
HETATM   22  C   UNL     1       1.574   6.609  15.823  0.00  0.00     0.117 A 
HETATM   23  C   UNL     1       2.599   6.671  16.748  0.00  0.00     0.036 A 
ENDBRANCH  15  18
ENDBRANCH   1  14
BRANCH  13  24
HETATM   24  C   UNL     1       3.021   6.525  26.321  0.00  0.00     0.140 C 
HETATM   25  N   UNL     1       4.023   6.922  27.189  0.00  0.00    -0.337 N 
HETATM   26  C   UNL     1       3.458   7.614  28.229  0.00  0.00     0.080 A 
HETATM   27  H   UNL     1       5.012   6.788  27.038  0.00  0.00     0.167 HD
HETATM   28  C   UNL     1       3.974   8.271  29.332  0.00  0.00     0.148 A 
HETATM   29  C   UNL     1       2.101   7.581  27.963  0.00  0.00     0.088 A 
HETATM   30  N   UNL     1       3.116   8.940  30.142  0.00  0.00    -0.271 NA
HETATM   31  C   UNL     1       1.791   8.938  29.854  0.00  0.00     0.118 A 
HETATM   32  C   UNL     1       1.214   8.270  28.787  0.00  0.00     0.053 A 
HETATM   33  N   UNL     1       1.850   6.837  26.841  0.00  0.00    -0.228 NA
ENDBRANCH  13  24
TORSDOF 3
ENDMDL
MODEL 4
REMARK VINA RESULT:    -8.352      1.386      1.696
REMARK INTER + INTRA:         -10.816
REMARK INTER:                  -9.773
REMARK INTRA:                  -1.043
REMARK UNBOUND:                -0.999
REMARK  3 active torsions:
REMARK  status: ('A' for Active; 'I' for Inactive)
REMARK       I    between atoms: C_2  and  N_3 
REMARK    1  A    between atoms: C_2  and  C_26 
REMARK    2  A    between atoms: N_3  and  C_4 
REMARK    3  A    between atoms: C_16  and  C_17 
ROOT
HETATM    1  C   UNL     1       4.866   7.557  21.576  0.00  0.00     0.153 A 
HETATM    2  C   UNL     1       4.367   8.683  22.451  0.00  0.00    -0.020 A 
HETATM    3  C   UNL     1       4.146  10.003  22.067  0.00  0.00     0.010 A 
HETATM    4  C   UNL     1       3.745  10.915  23.037  0.00  0.00     0.001 A 
HETATM    5  C   UNL     1       3.604  10.508  24.367  0.00  0.00     0.001 A 
HETATM    6  C   UNL     1       3.841   9.177  24.740  0.00  0.00     0.013 A 
HETATM    7  C   UNL     1       4.186   8.238  23.781  0.00  0.00    -0.016 A 
HETATM    8  C   UNL     1       4.454   6.794  23.848  0.00  0.00    -0.003 A 
HETATM    9  C   UNL     1       4.866   6.387  22.545  0.00  0.00    -0.019 A 
HETATM   10  C   UNL     1       5.245   5.084  22.250  0.00  0.00     0.010 A 
HETATM   11  C   UNL     1       5.202   4.144  23.268  0.00  0.00     0.002 A 
HETATM   12  C   UNL     1       4.770   4.511  24.554  0.00  0.00     0.016 A 
HETATM   13  C   UNL     1       4.379   5.835  24.873  0.00  0.00     0.022 A 
ENDROOT
BRANCH   1  14
HETATM   14  N   UNL     1       3.991   7.336  20.449  0.00  0.00    -0.344 N 
HETATM   15  C   UNL     1       4.357   7.717  19.179  0.00  0.00     0.252 C 
HETATM   16  O   UNL     1       5.418   8.273  18.917  0.00  0.00    -0.268 OA
HETATM   17  H   UNL     1       3.084   6.935  20.642  0.00  0.00     0.163 HD
BRANCH  15  18
HETATM   18  C   UNL     1       3.371   7.470  18.097  0.00  0.00     0.034 A 
HETATM   19  C   UNL     1       3.429   6.342  17.279  0.00  0.00     0.036 A 
HETATM   20  C   UNL     1       2.468   6.213  16.290  0.00  0.00     0.117 A 
HETATM   21  N   UNL     1       1.484   7.112  16.076  0.00  0.00    -0.273 NA
HETATM   22  C   UNL     1       1.462   8.201  16.873  0.00  0.00     0.117 A 
HETATM   23  C   UNL     1       2.377   8.426  17.884  0.00  0.00     0.036 A 
ENDBRANCH  15  18
ENDBRANCH   1  14
BRANCH  13  24
HETATM   24  C   UNL     1       3.889   6.120  26.229  0.00  0.00     0.140 C 
HETATM   25  N   UNL     1       4.704   6.265  27.338  0.00  0.00    -0.337 N 
HETATM   26  C   UNL     1       3.931   6.633  28.409  0.00  0.00     0.080 A 
HETATM   27  H   UNL     1       5.710   6.187  27.335  0.00  0.00     0.167 HD
HETATM   28  C   UNL     1       4.213   6.957  29.724  0.00  0.00     0.148 A 
HETATM   29  C   UNL     1       2.643   6.663  27.905  0.00  0.00     0.088 A 
HETATM   30  N   UNL     1       3.192   7.365  30.519  0.00  0.00    -0.271 NA
HETATM   31  C   UNL     1       1.938   7.432  30.008  0.00  0.00     0.118 A 
HETATM   32  C   UNL     1       1.590   7.086  28.713  0.00  0.00     0.053 A 
HETATM   33  N   UNL     1       2.630   6.263  26.596  0.00  0.00    -0.228 NA
ENDBRANCH  13  24
TORSDOF 3
ENDMDL
MODEL 5
REMARK VINA RESULT:    -7.928      2.775      9.667
REMARK INTER + INTRA:         -10.317
REMARK INTER:                  -9.319
REMARK INTRA:                  -0.998
REMARK UNBOUND:                -0.999
REMARK  3 active torsions:
REMARK  status: ('A' for Active; 'I' for Inactive)
REMARK       I    between atoms: C_2  and  N_3 
REMARK    1  A    between atoms: C_2  and  C_26 
REMARK    2  A    between atoms: N_3  and  C_4 
REMARK    3  A    between atoms: C_16  and  C_17 
ROOT
HETATM    1  C   UNL     1       3.986   6.738  20.449  0.00  0.00     0.153 A 
HETATM    2  C   UNL     1       3.895   5.238  20.288  0.00  0.00    -0.020 A 
HETATM    3  C   UNL     1       4.464   4.274  21.115  0.00  0.00     0.010 A 
HETATM    4  C   UNL     1       4.323   2.936  20.765  0.00  0.00     0.001 A 
HETATM    5  C   UNL     1       3.651   2.586  19.590  0.00  0.00     0.001 A 
HETATM    6  C   UNL     1       3.093   3.569  18.760  0.00  0.00     0.013 A 
HETATM    7  C   UNL     1       3.172   4.906  19.119  0.00  0.00    -0.016 A 
HETATM    8  C   UNL     1       2.665   6.138  18.497  0.00  0.00    -0.003 A 
HETATM    9  C   UNL     1       3.153   7.228  19.277  0.00  0.00    -0.019 A 
HETATM   10  C   UNL     1       2.904   8.555  18.953  0.00  0.00     0.010 A 
HETATM   11  C   UNL     1       2.133   8.820  17.830  0.00  0.00     0.002 A 
HETATM   12  C   UNL     1       1.614   7.765  17.062  0.00  0.00     0.016 A 
HETATM   13  C   UNL     1       1.858   6.405  17.378  0.00  0.00     0.022 A 
ENDROOT
BRANCH   1  14
HETATM   14  N   UNL     1       3.452   7.166  21.720  0.00  0.00    -0.344 N 
HETATM   15  C   UNL     1       4.278   7.399  22.796  0.00  0.00     0.252 C 
HETATM   16  O   UNL     1       5.494   7.247  22.763  0.00  0.00    -0.268 OA
HETATM   17  H   UNL     1       2.448   7.242  21.795  0.00  0.00     0.163 HD
BRANCH  15  18
HETATM   18  C   UNL     1       3.622   7.807  24.064  0.00  0.00     0.034 A 
HETATM   19  C   UNL     1       3.549   6.963  25.171  0.00  0.00     0.036 A 
HETATM   20  C   UNL     1       2.903   7.436  26.301  0.00  0.00     0.117 A 
HETATM   21  N   UNL     1       2.345   8.661  26.391  0.00  0.00    -0.273 NA
HETATM   22  C   UNL     1       2.417   9.451  25.298  0.00  0.00     0.117 A 
HETATM   23  C   UNL     1       3.035   9.071  24.121  0.00  0.00     0.036 A 
ENDBRANCH  15  18
ENDBRANCH   1  14
BRANCH  13  24
HETATM   24  C   UNL     1       1.231   5.364  16.551  0.00  0.00     0.140 C 
HETATM   25  N   UNL     1       1.760   4.886  15.365  0.00  0.00    -0.337 N 
HETATM   26  C   UNL     1       0.981   3.851  14.919  0.00  0.00     0.080 A 
HETATM   27  H   UNL     1       2.620   5.202  14.943  0.00  0.00     0.167 HD
HETATM   28  C   UNL     1       1.063   2.989  13.840  0.00  0.00     0.148 A 
HETATM   29  C   UNL     1      -0.034   3.759  15.856  0.00  0.00     0.088 A 
HETATM   30  N   UNL     1       0.143   1.998  13.737  0.00  0.00    -0.271 NA
HETATM   31  C   UNL     1      -0.825   1.887  14.680  0.00  0.00     0.118 A 
HETATM   32  C   UNL     1      -0.979   2.741  15.759  0.00  0.00     0.053 A 
HETATM   33  N   UNL     1       0.091   4.748  16.795  0.00  0.00    -0.228 NA
ENDBRANCH  13  24
TORSDOF 3
ENDMDL
MODEL 6
REMARK VINA RESULT:    -7.705      2.559      9.475
REMARK INTER + INTRA:         -10.056
REMARK INTER:                  -9.343
REMARK INTRA:                  -0.712
REMARK UNBOUND:                -0.999
REMARK  3 active torsions:
REMARK  status: ('A' for Active; 'I' for Inactive)
REMARK       I    between atoms: C_2  and  N_3 
REMARK    1  A    between atoms: C_2  and  C_26 
REMARK    2  A    between atoms: N_3  and  C_4 
REMARK    3  A    between atoms: C_16  and  C_17 
ROOT
HETATM    1  C   UNL     1       3.535   6.029  21.944  0.00  0.00     0.153 A 
HETATM    2  C   UNL     1       2.916   4.709  21.545  0.00  0.00    -0.020 A 
HETATM    3  C   UNL     1       2.734   3.594  22.358  0.00  0.00     0.010 A 
HETATM    4  C   UNL     1       2.202   2.441  21.789  0.00  0.00     0.001 A 
HETATM    5  C   UNL     1       1.895   2.410  20.426  0.00  0.00     0.001 A 
HETATM    6  C   UNL     1       2.096   3.538  19.617  0.00  0.00     0.013 A 
HETATM    7  C   UNL     1       2.570   4.716  20.174  0.00  0.00    -0.016 A 
HETATM    8  C   UNL     1       2.842   6.047  19.613  0.00  0.00    -0.003 A 
HETATM    9  C   UNL     1       3.423   6.827  20.656  0.00  0.00    -0.019 A 
HETATM   10  C   UNL     1       3.850   8.135  20.468  0.00  0.00     0.010 A 
HETATM   11  C   UNL     1       3.684   8.702  19.214  0.00  0.00     0.002 A 
HETATM   12  C   UNL     1       3.087   7.967  18.176  0.00  0.00     0.016 A 
HETATM   13  C   UNL     1       2.645   6.632  18.350  0.00  0.00     0.022 A 
ENDROOT
BRANCH   1  14
HETATM   14  N   UNL     1       2.815   6.642  23.034  0.00  0.00    -0.344 N 
HETATM   15  C   UNL     1       3.478   7.312  24.037  0.00  0.00     0.252 C 
HETATM   16  O   UNL     1       4.698   7.422  24.087  0.00  0.00    -0.268 OA
HETATM   17  H   UNL     1       1.813   6.516  23.053  0.00  0.00     0.163 HD
BRANCH  15  18
HETATM   18  C   UNL     1       2.644   7.880  25.125  0.00  0.00     0.034 A 
HETATM   19  C   UNL     1       1.615   8.789  24.879  0.00  0.00     0.036 A 
HETATM   20  C   UNL     1       0.905   9.269  25.967  0.00  0.00     0.117 A 
HETATM   21  N   UNL     1       1.150   8.907  27.244  0.00  0.00    -0.273 NA
HETATM   22  C   UNL     1       2.162   8.038  27.453  0.00  0.00     0.117 A 
HETATM   23  C   UNL     1       2.934   7.505  26.438  0.00  0.00     0.036 A 
ENDBRANCH  15  18
ENDBRANCH   1  14
BRANCH  13  24
HETATM   24  C   UNL     1       1.982   5.955  17.227  0.00  0.00     0.140 C 
HETATM   25  N   UNL     1       2.387   4.742  16.698  0.00  0.00    -0.337 N 
HETATM   26  C   UNL     1       1.484   4.353  15.742  0.00  0.00     0.080 A 
HETATM   27  H   UNL     1       3.176   4.201  17.020  0.00  0.00     0.167 HD
HETATM   28  C   UNL     1       1.362   3.229  14.946  0.00  0.00     0.148 A 
HETATM   29  C   UNL     1       0.563   5.385  15.703  0.00  0.00     0.088 A 
HETATM   30  N   UNL     1       0.273   3.126  14.142  0.00  0.00    -0.271 NA
HETATM   31  C   UNL     1      -0.647   4.121  14.138  0.00  0.00     0.118 A 
HETATM   32  C   UNL     1      -0.559   5.284  14.885  0.00  0.00     0.053 A 
HETATM   33  N   UNL     1       0.934   6.391  16.555  0.00  0.00    -0.228 NA
ENDBRANCH  13  24
TORSDOF 3
ENDMDL
MODEL 7
REMARK VINA RESULT:    -7.572      3.078      8.571
REMARK INTER + INTRA:          -9.899
REMARK INTER:                  -8.922
REMARK INTRA:                  -0.977
REMARK UNBOUND:                -0.999
REMARK  3 active torsions:
REMARK  status: ('A' for Active; 'I' for Inactive)
REMARK       I    between atoms: C_2  and  N_3 
REMARK    1  A    between atoms: C_2  and  C_26 
REMARK    2  A    between atoms: N_3  and  C_4 
REMARK    3  A    between atoms: C_16  and  C_17 
ROOT
HETATM    1  C   UNL     1       3.259   7.533  24.277  0.00  0.00     0.153 A 
HETATM    2  C   UNL     1       3.044   6.038  24.345  0.00  0.00    -0.020 A 
HETATM    3  C   UNL     1       2.597   5.309  25.443  0.00  0.00     0.010 A 
HETATM    4  C   UNL     1       2.525   3.924  25.332  0.00  0.00     0.001 A 
HETATM    5  C   UNL     1       2.927   3.294  24.150  0.00  0.00     0.001 A 
HETATM    6  C   UNL     1       3.387   4.042  23.057  0.00  0.00     0.013 A 
HETATM    7  C   UNL     1       3.412   5.427  23.125  0.00  0.00    -0.016 A 
HETATM    8  C   UNL     1       3.794   6.466  22.158  0.00  0.00    -0.003 A 
HETATM    9  C   UNL     1       3.712   7.717  22.839  0.00  0.00    -0.019 A 
HETATM   10  C   UNL     1       4.048   8.923  22.238  0.00  0.00     0.010 A 
HETATM   11  C   UNL     1       4.462   8.901  20.915  0.00  0.00     0.002 A 
HETATM   12  C   UNL     1       4.522   7.687  20.211  0.00  0.00     0.016 A 
HETATM   13  C   UNL     1       4.183   6.447  20.807  0.00  0.00     0.022 A 
ENDROOT
BRANCH   1  14
HETATM   14  N   UNL     1       2.042   8.254  24.565  0.00  0.00    -0.344 N 
HETATM   15  C   UNL     1       1.788   8.746  25.825  0.00  0.00     0.252 C 
HETATM   16  O   UNL     1       2.548   8.597  26.776  0.00  0.00    -0.268 OA
HETATM   17  H   UNL     1       1.369   8.340  23.817  0.00  0.00     0.163 HD
BRANCH  15  18
HETATM   18  C   UNL     1       0.494   9.447  26.020  0.00  0.00     0.034 A 
HETATM   19  C   UNL     1      -0.069   9.635  27.282  0.00  0.00     0.036 A 
HETATM   20  C   UNL     1      -1.287  10.290  27.353  0.00  0.00     0.117 A 
HETATM   21  N   UNL     1      -1.955  10.755  26.276  0.00  0.00    -0.273 NA
HETATM   22  C   UNL     1      -1.393  10.544  25.067  0.00  0.00     0.117 A 
HETATM   23  C   UNL     1      -0.185   9.898  24.888  0.00  0.00     0.036 A 
ENDBRANCH  15  18
ENDBRANCH   1  14
BRANCH  13  24
HETATM   24  C   UNL     1       4.222   5.231  19.982  0.00  0.00     0.140 C 
HETATM   25  N   UNL     1       5.219   4.274  20.049  0.00  0.00    -0.337 N 
HETATM   26  C   UNL     1       4.884   3.229  19.227  0.00  0.00     0.080 A 
HETATM   27  H   UNL     1       6.020   4.311  20.662  0.00  0.00     0.167 HD
HETATM   28  C   UNL     1       5.471   2.008  18.949  0.00  0.00     0.148 A 
HETATM   29  C   UNL     1       3.686   3.616  18.654  0.00  0.00     0.088 A 
HETATM   30  N   UNL     1       4.815   1.153  18.125  0.00  0.00    -0.271 NA
HETATM   31  C   UNL     1       3.621   1.521  17.598  0.00  0.00     0.118 A 
HETATM   32  C   UNL     1       3.004   2.742  17.812  0.00  0.00     0.053 A 
HETATM   33  N   UNL     1       3.344   4.878  19.063  0.00  0.00    -0.228 NA
ENDBRANCH  13  24
TORSDOF 3
ENDMDL
MODEL 8
REMARK VINA RESULT:    -7.546      4.048      6.347
REMARK INTER + INTRA:          -9.869
REMARK INTER:                  -8.870
REMARK INTRA:                  -0.999
REMARK UNBOUND:                -0.999
REMARK  3 active torsions:
REMARK  status: ('A' for Active; 'I' for Inactive)
REMARK       I    between atoms: C_2  and  N_3 
REMARK    1  A    between atoms: C_2  and  C_26 
REMARK    2  A    between atoms: N_3  and  C_4 
REMARK    3  A    between atoms: C_16  and  C_17 
ROOT
HETATM    1  C   UNL     1       1.019  10.729  25.369  0.00  0.00     0.153 A 
HETATM    2  C   UNL     1       0.500   9.653  26.296  0.00  0.00    -0.020 A 
HETATM    3  C   UNL     1      -0.625   9.728  27.112  0.00  0.00     0.010 A 
HETATM    4  C   UNL     1      -0.907   8.653  27.949  0.00  0.00     0.001 A 
HETATM    5  C   UNL     1      -0.053   7.547  27.980  0.00  0.00     0.001 A 
HETATM    6  C   UNL     1       1.084   7.492  27.160  0.00  0.00     0.013 A 
HETATM    7  C   UNL     1       1.353   8.526  26.277  0.00  0.00    -0.016 A 
HETATM    8  C   UNL     1       2.416   8.739  25.284  0.00  0.00    -0.003 A 
HETATM    9  C   UNL     1       2.227  10.048  24.749  0.00  0.00    -0.019 A 
HETATM   10  C   UNL     1       3.082  10.605  23.807  0.00  0.00     0.010 A 
HETATM   11  C   UNL     1       4.152   9.842  23.363  0.00  0.00     0.002 A 
HETATM   12  C   UNL     1       4.343   8.538  23.850  0.00  0.00     0.016 A 
HETATM   13  C   UNL     1       3.481   7.954  24.811  0.00  0.00     0.022 A 
ENDROOT
BRANCH   1  14
HETATM   14  N   UNL     1       0.031  11.099  24.384  0.00  0.00    -0.344 N 
HETATM   15  C   UNL     1      -0.018  12.375  23.871  0.00  0.00     0.252 C 
HETATM   16  O   UNL     1       0.741  13.274  24.215  0.00  0.00    -0.268 OA
HETATM   17  H   UNL     1      -0.647  10.396  24.125  0.00  0.00     0.163 HD
BRANCH  15  18
HETATM   18  C   UNL     1      -1.092  12.657  22.885  0.00  0.00     0.034 A 
HETATM   19  C   UNL     1      -0.820  12.932  21.546  0.00  0.00     0.036 A 
HETATM   20  C   UNL     1      -1.893  13.196  20.711  0.00  0.00     0.117 A 
HETATM   21  N   UNL     1      -3.180  13.198  21.119  0.00  0.00    -0.273 NA
HETATM   22  C   UNL     1      -3.412  12.944  22.424  0.00  0.00     0.117 A 
HETATM   23  C   UNL     1      -2.411  12.674  23.339  0.00  0.00     0.036 A 
ENDBRANCH  15  18
ENDBRANCH   1  14
BRANCH  13  24
HETATM   24  C   UNL     1       3.723   6.565  25.226  0.00  0.00     0.140 C 
HETATM   25  N   UNL     1       4.709   6.178  26.116  0.00  0.00    -0.337 N 
HETATM   26  C   UNL     1       4.581   4.834  26.360  0.00  0.00     0.080 A 
HETATM   27  H   UNL     1       5.363   6.800  26.567  0.00  0.00     0.167 HD
HETATM   28  C   UNL     1       5.245   3.947  27.187  0.00  0.00     0.148 A 
HETATM   29  C   UNL     1       3.519   4.443  25.564  0.00  0.00     0.088 A 
HETATM   30  N   UNL     1       4.799   2.667  27.248  0.00  0.00    -0.271 NA
HETATM   31  C   UNL     1       3.732   2.298  26.496  0.00  0.00     0.118 A 
HETATM   32  C   UNL     1       3.052   3.132  25.624  0.00  0.00     0.053 A 
HETATM   33  N   UNL     1       3.067   5.497  24.816  0.00  0.00    -0.228 NA
ENDBRANCH  13  24
TORSDOF 3
ENDMDL
MODEL 9
REMARK VINA RESULT:    -7.505      5.561      8.890
REMARK INTER + INTRA:          -9.820
REMARK INTER:                  -8.842
REMARK INTRA:                  -0.978
REMARK UNBOUND:                -0.999
REMARK  3 active torsions:
REMARK  status: ('A' for Active; 'I' for Inactive)
REMARK       I    between atoms: C_2  and  N_3 
REMARK    1  A    between atoms: C_2  and  C_26 
REMARK    2  A    between atoms: N_3  and  C_4 
REMARK    3  A    between atoms: C_16  and  C_17 
ROOT
HETATM    1  C   UNL     1      -0.265   2.725  17.423  0.00  0.00     0.153 A 
HETATM    2  C   UNL     1       0.132   3.969  16.663  0.00  0.00    -0.020 A 
HETATM    3  C   UNL     1      -0.388   4.405  15.447  0.00  0.00     0.010 A 
HETATM    4  C   UNL     1       0.155   5.548  14.869  0.00  0.00     0.001 A 
HETATM    5  C   UNL     1       1.218   6.210  15.489  0.00  0.00     0.001 A 
HETATM    6  C   UNL     1       1.738   5.751  16.708  0.00  0.00     0.013 A 
HETATM    7  C   UNL     1       1.176   4.649  17.332  0.00  0.00    -0.016 A 
HETATM    8  C   UNL     1       1.463   3.966  18.601  0.00  0.00    -0.003 A 
HETATM    9  C   UNL     1       0.617   2.818  18.656  0.00  0.00    -0.019 A 
HETATM   10  C   UNL     1       0.652   1.909  19.705  0.00  0.00     0.010 A 
HETATM   11  C   UNL     1       1.538   2.144  20.746  0.00  0.00     0.002 A 
HETATM   12  C   UNL     1       2.361   3.283  20.732  0.00  0.00     0.016 A 
HETATM   13  C   UNL     1       2.339   4.222  19.670  0.00  0.00     0.022 A 
ENDROOT
BRANCH   1  14
HETATM   14  N   UNL     1      -1.671   2.733  17.752  0.00  0.00    -0.344 N 
HETATM   15  C   UNL     1      -2.408   1.571  17.752  0.00  0.00     0.252 C 
HETATM   16  O   UNL     1      -1.943   0.474  17.464  0.00  0.00    -0.268 OA
HETATM   17  H   UNL     1      -2.096   3.631  17.935  0.00  0.00     0.163 HD
BRANCH  15  18
HETATM   18  C   UNL     1      -3.851   1.696  18.076  0.00  0.00     0.034 A 
HETATM   19  C   UNL     1      -4.849   1.505  17.121  0.00  0.00     0.036 A 
HETATM   20  C   UNL     1      -6.165   1.659  17.523  0.00  0.00     0.117 A 
HETATM   21  N   UNL     1      -6.534   1.980  18.781  0.00  0.00    -0.273 NA
HETATM   22  C   UNL     1      -5.546   2.175  19.681  0.00  0.00     0.117 A 
HETATM   23  C   UNL     1      -4.203   2.050  19.379  0.00  0.00     0.036 A 
ENDBRANCH  15  18
ENDBRANCH   1  14
BRANCH  13  24
HETATM   24  C   UNL     1       3.194   5.413  19.763  0.00  0.00     0.140 C 
HETATM   25  N   UNL     1       2.908   6.520  20.542  0.00  0.00    -0.337 N 
HETATM   26  C   UNL     1       3.965   7.391  20.479  0.00  0.00     0.080 A 
HETATM   27  H   UNL     1       2.087   6.629  21.120  0.00  0.00     0.167 HD
HETATM   28  C   UNL     1       4.242   8.603  21.085  0.00  0.00     0.148 A 
HETATM   29  C   UNL     1       4.859   6.780  19.617  0.00  0.00     0.088 A 
HETATM   30  N   UNL     1       5.451   9.174  20.857  0.00  0.00    -0.271 NA
HETATM   31  C   UNL     1       6.339   8.551  20.044  0.00  0.00     0.118 A 
HETATM   32  C   UNL     1       6.104   7.358  19.382  0.00  0.00     0.053 A 
HETATM   33  N   UNL     1       4.330   5.616  19.125  0.00  0.00    -0.228 NA
ENDBRANCH  13  24
TORSDOF 3
ENDMDL
