MODEL 1
REMARK VINA RESULT:    -5.844      0.000      0.000
REMARK INTER + INTRA:          -8.511
REMARK INTER:                  -7.522
REMARK INTRA:                  -0.989
REMARK UNBOUND:                -0.959
REMARK  5 active torsions:
REMARK  status: ('A' for Active; 'I' for Inactive)
REMARK    1  A    between atoms: N8_1  and  C24_2 
REMARK    2  A    between atoms: N8_1  and  C7_8 
REMARK    3  A    between atoms: C2_13  and  N1_14 
REMARK    4  A    between atoms: N1_14  and  C17_15 
REMARK    5  A    between atoms: C14_16  and  C13_19 
ROOT
ATOM      1  C17 FTA A   1       7.578  18.959  19.342  1.00  0.00     0.142 C 
ATOM      2  C14 FTA A   1       6.664  18.955  20.333  1.00  0.00     0.158 C 
ATOM      3  C18 FTA A   1       7.028  19.405  21.660  1.00  0.00     0.069 C 
ATOM      4  N21 FTA A   1       7.477  19.740  22.690  1.00  0.00    -0.197 NA
ENDROOT
BRANCH   2   5
ATOM      5  C13 FTA A   1       5.284  18.501  20.049  1.00  0.00     0.197 A 
ATOM      6  N15 FTA A   1       4.196  19.317  19.745  1.00  0.00    -0.093 NA
ATOM      7  N19 FTA A   1       3.086  18.495  19.597  1.00  0.00    -0.231 N 
ATOM      8  N20 FTA A   1       3.464  17.177  19.807  1.00  0.00    -0.017 NA
ATOM      9  H15 FTA A   1       2.133  18.814  19.368  1.00  0.00     0.200 HD
ATOM     10  N16 FTA A   1       4.829  17.177  20.077  1.00  0.00    -0.090 NA
ENDBRANCH   2   5
BRANCH   1  11
ATOM     11  N1  FTA A   1       7.783  17.827  18.642  1.00  0.00    -0.389 N 
ATOM     12  H11 FTA A   1       8.272  17.055  19.118  1.00  0.00     0.159 HD
BRANCH  11  13
ATOM     13  C2  FTA A   1       7.378  17.616  17.296  1.00  0.00     0.028 A 
ATOM     14  C4  FTA A   1       6.535  16.569  16.931  1.00  0.00     0.031 A 
ATOM     15  C6  FTA A   1       6.360  16.279  15.571  1.00  0.00     0.031 A 
ATOM     16  C7  FTA A   1       7.005  17.003  14.571  1.00  0.00     0.032 A 
ATOM     17  C5  FTA A   1       7.819  18.056  14.949  1.00  0.00     0.031 A 
ATOM     18  C3  FTA A   1       8.016  18.351  16.292  1.00  0.00     0.031 A 
BRANCH  16  19
ATOM     19  N8  FTA A   1       7.010  16.600  13.211  1.00  0.00    -0.356 N 
ATOM     20  H1  FTA A   1       6.963  17.343  12.499  1.00  0.00     0.166 HD
BRANCH  19  21
ATOM     21  C24 FTA A   1       7.074  15.251  12.749  1.00  0.00     0.032 A 
ATOM     22  C26 FTA A   1       8.276  14.633  12.496  1.00  0.00     0.029 A 
ATOM     23  C28 FTA A   1       8.267  13.391  11.888  1.00  0.00     0.002 A 
ATOM     24  C30 FTA A   1       7.094  12.736  11.555  1.00  0.00     0.000 A 
ATOM     25  C29 FTA A   1       5.890  13.324  11.837  1.00  0.00     0.002 A 
ATOM     26  C27 FTA A   1       5.896  14.583  12.449  1.00  0.00     0.029 A 
ENDBRANCH  19  21
ENDBRANCH  16  19
ENDBRANCH  11  13
ENDBRANCH   1  11
TORSDOF 5
ENDMDL
MODEL 2
REMARK VINA RESULT:    -5.842      4.944     10.608
REMARK INTER + INTRA:          -8.509
REMARK INTER:                  -7.564
REMARK INTRA:                  -0.945
REMARK UNBOUND:                -0.959
REMARK  5 active torsions:
REMARK  status: ('A' for Active; 'I' for Inactive)
REMARK    1  A    between atoms: N8_1  and  C24_2 
REMARK    2  A    between atoms: N8_1  and  C7_8 
REMARK    3  A    between atoms: C2_13  and  N1_14 
REMARK    4  A    between atoms: N1_14  and  C17_15 
REMARK    5  A    between atoms: C14_16  and  C13_19 
ROOT
ATOM      1  C17 FTA A   1       8.059  18.652  20.135  1.00  0.00     0.142 C 
ATOM      2  C14 FTA A   1       6.969  18.817  19.360  1.00  0.00     0.158 C 
ATOM      3  C18 FTA A   1       6.879  19.948  18.462  1.00  0.00     0.069 C 
ATOM      4  N21 FTA A   1       6.918  20.935  17.831  1.00  0.00    -0.197 NA
ENDROOT
BRANCH   2   5
ATOM      5  C13 FTA A   1       5.874  17.822  19.423  1.00  0.00     0.197 A 
ATOM      6  N15 FTA A   1       5.061  17.563  20.525  1.00  0.00    -0.093 NA
ATOM      7  N19 FTA A   1       4.199  16.532  20.175  1.00  0.00    -0.231 N 
ATOM      8  N20 FTA A   1       4.464  16.140  18.871  1.00  0.00    -0.017 NA
ATOM      9  H15 FTA A   1       3.479  16.122  20.787  1.00  0.00     0.200 HD
ATOM     10  N16 FTA A   1       5.495  16.946  18.399  1.00  0.00    -0.090 NA
ENDBRANCH   2   5
BRANCH   1  11
ATOM     11  N1  FTA A   1       7.896  18.486  21.462  1.00  0.00    -0.389 N 
ATOM     12  H11 FTA A   1       7.046  17.998  21.779  1.00  0.00     0.159 HD
BRANCH  11  13
ATOM     13  C2  FTA A   1       8.807  18.932  22.458  1.00  0.00     0.028 A 
ATOM     14  C4  FTA A   1       9.571  18.046  23.213  1.00  0.00     0.031 A 
ATOM     15  C6  FTA A   1      10.271  18.530  24.327  1.00  0.00     0.031 A 
ATOM     16  C7  FTA A   1      10.226  19.870  24.704  1.00  0.00     0.032 A 
ATOM     17  C5  FTA A   1       9.483  20.742  23.928  1.00  0.00     0.031 A 
ATOM     18  C3  FTA A   1       8.771  20.279  22.829  1.00  0.00     0.031 A 
BRANCH  16  19
ATOM     19  N8  FTA A   1      10.750  20.341  25.935  1.00  0.00    -0.356 N 
ATOM     20  H1  FTA A   1      11.622  20.889  25.899  1.00  0.00     0.166 HD
BRANCH  19  21
ATOM     21  C24 FTA A   1      10.169  20.119  27.220  1.00  0.00     0.032 A 
ATOM     22  C26 FTA A   1       9.172  20.930  27.710  1.00  0.00     0.029 A 
ATOM     23  C28 FTA A   1       8.774  20.769  29.024  1.00  0.00     0.002 A 
ATOM     24  C30 FTA A   1       9.319  19.802  29.852  1.00  0.00     0.000 A 
ATOM     25  C29 FTA A   1      10.285  18.963  29.364  1.00  0.00     0.002 A 
ATOM     26  C27 FTA A   1      10.693  19.126  28.035  1.00  0.00     0.029 A 
ENDBRANCH  19  21
ENDBRANCH  16  19
ENDBRANCH  11  13
ENDBRANCH   1  11
TORSDOF 5
ENDMDL
MODEL 3
REMARK VINA RESULT:    -5.775      3.868      9.385
REMARK INTER + INTRA:          -8.423
REMARK INTER:                  -7.468
REMARK INTRA:                  -0.954
REMARK UNBOUND:                -0.959
REMARK  5 active torsions:
REMARK  status: ('A' for Active; 'I' for Inactive)
REMARK    1  A    between atoms: N8_1  and  C24_2 
REMARK    2  A    between atoms: N8_1  and  C7_8 
REMARK    3  A    between atoms: C2_13  and  N1_14 
REMARK    4  A    between atoms: N1_14  and  C17_15 
REMARK    5  A    between atoms: C14_16  and  C13_19 
ROOT
ATOM      1  C17 FTA A   1       5.327  17.506  19.988  1.00  0.00     0.142 C 
ATOM      2  C14 FTA A   1       4.863  17.479  18.723  1.00  0.00     0.158 C 
ATOM      3  C18 FTA A   1       5.658  16.884  17.670  1.00  0.00     0.069 C 
ATOM      4  N21 FTA A   1       6.430  16.425  16.916  1.00  0.00    -0.197 NA
ENDROOT
BRANCH   2   5
ATOM      5  C13 FTA A   1       3.529  18.048  18.424  1.00  0.00     0.197 A 
ATOM      6  N15 FTA A   1       2.662  18.638  19.341  1.00  0.00    -0.093 NA
ATOM      7  N19 FTA A   1       1.508  18.993  18.656  1.00  0.00    -0.231 N 
ATOM      8  N20 FTA A   1       1.640  18.631  17.323  1.00  0.00    -0.017 NA
ATOM      9  H15 FTA A   1       0.684  19.452  19.071  1.00  0.00     0.200 HD
ATOM     10  N16 FTA A   1       2.897  18.054  17.175  1.00  0.00    -0.090 NA
ENDBRANCH   2   5
BRANCH   1  11
ATOM     11  N1  FTA A   1       5.360  18.682  20.645  1.00  0.00    -0.389 N 
ATOM     12  H11 FTA A   1       4.595  19.348  20.466  1.00  0.00     0.159 HD
BRANCH  11  13
ATOM     13  C2  FTA A   1       6.370  19.073  21.566  1.00  0.00     0.028 A 
ATOM     14  C4  FTA A   1       6.132  20.000  22.577  1.00  0.00     0.031 A 
ATOM     15  C6  FTA A   1       7.218  20.512  23.299  1.00  0.00     0.031 A 
ATOM     16  C7  FTA A   1       8.529  20.125  23.038  1.00  0.00     0.032 A 
ATOM     17  C5  FTA A   1       8.747  19.184  22.047  1.00  0.00     0.031 A 
ATOM     18  C3  FTA A   1       7.685  18.674  21.311  1.00  0.00     0.031 A 
BRANCH  16  19
ATOM     19  N8  FTA A   1       9.653  20.778  23.606  1.00  0.00    -0.356 N 
ATOM     20  H1  FTA A   1      10.003  21.620  23.126  1.00  0.00     0.166 HD
BRANCH  19  21
ATOM     21  C24 FTA A   1      10.338  20.365  24.789  1.00  0.00     0.032 A 
ATOM     22  C26 FTA A   1      11.435  19.538  24.734  1.00  0.00     0.029 A 
ATOM     23  C28 FTA A   1      11.946  19.037  25.916  1.00  0.00     0.002 A 
ATOM     24  C30 FTA A   1      11.415  19.363  27.152  1.00  0.00     0.000 A 
ATOM     25  C29 FTA A   1      10.346  20.216  27.222  1.00  0.00     0.002 A 
ATOM     26  C27 FTA A   1       9.824  20.722  26.027  1.00  0.00     0.029 A 
ENDBRANCH  19  21
ENDBRANCH  16  19
ENDBRANCH  11  13
ENDBRANCH   1  11
TORSDOF 5
ENDMDL
MODEL 4
REMARK VINA RESULT:    -5.760      3.277      9.137
REMARK INTER + INTRA:          -8.403
REMARK INTER:                  -7.333
REMARK INTRA:                  -1.070
REMARK UNBOUND:                -0.959
REMARK  5 active torsions:
REMARK  status: ('A' for Active; 'I' for Inactive)
REMARK    1  A    between atoms: N8_1  and  C24_2 
REMARK    2  A    between atoms: N8_1  and  C7_8 
REMARK    3  A    between atoms: C2_13  and  N1_14 
REMARK    4  A    between atoms: N1_14  and  C17_15 
REMARK    5  A    between atoms: C14_16  and  C13_19 
ROOT
ATOM      1  C17 FTA A   1       7.751  17.642  18.112  1.00  0.00     0.142 C 
ATOM      2  C14 FTA A   1       6.555  17.233  17.642  1.00  0.00     0.158 C 
ATOM      3  C18 FTA A   1       6.449  16.680  16.309  1.00  0.00     0.069 C 
ATOM      4  N21 FTA A   1       6.503  16.310  15.198  1.00  0.00    -0.197 NA
ENDROOT
BRANCH   2   5
ATOM      5  C13 FTA A   1       5.358  17.340  18.507  1.00  0.00     0.197 A 
ATOM      6  N15 FTA A   1       4.741  18.521  18.915  1.00  0.00    -0.093 NA
ATOM      7  N19 FTA A   1       3.686  18.174  19.749  1.00  0.00    -0.231 N 
ATOM      8  N20 FTA A   1       3.636  16.793  19.870  1.00  0.00    -0.017 NA
ATOM      9  H15 FTA A   1       3.043  18.837  20.206  1.00  0.00     0.200 HD
ATOM     10  N16 FTA A   1       4.665  16.273  19.091  1.00  0.00    -0.090 NA
ENDBRANCH   2   5
BRANCH   1  11
ATOM     11  N1  FTA A   1       7.863  18.889  18.610  1.00  0.00    -0.389 N 
ATOM     12  H11 FTA A   1       7.561  19.670  18.009  1.00  0.00     0.159 HD
BRANCH  11  13
ATOM     13  C2  FTA A   1       8.366  19.210  19.900  1.00  0.00     0.028 A 
ATOM     14  C4  FTA A   1       8.014  18.483  21.034  1.00  0.00     0.031 A 
ATOM     15  C6  FTA A   1       8.356  18.986  22.297  1.00  0.00     0.031 A 
ATOM     16  C7  FTA A   1       9.035  20.192  22.455  1.00  0.00     0.032 A 
ATOM     17  C5  FTA A   1       9.399  20.889  21.317  1.00  0.00     0.031 A 
ATOM     18  C3  FTA A   1       9.058  20.415  20.057  1.00  0.00     0.031 A 
BRANCH  16  19
ATOM     19  N8  FTA A   1       9.205  20.820  23.715  1.00  0.00    -0.356 N 
ATOM     20  H1  FTA A   1       8.639  21.660  23.905  1.00  0.00     0.166 HD
BRANCH  19  21
ATOM     21  C24 FTA A   1      10.096  20.384  24.742  1.00  0.00     0.032 A 
ATOM     22  C26 FTA A   1      11.208  19.627  24.458  1.00  0.00     0.029 A 
ATOM     23  C28 FTA A   1      11.931  19.093  25.508  1.00  0.00     0.002 A 
ATOM     24  C30 FTA A   1      11.596  19.319  26.832  1.00  0.00     0.000 A 
ATOM     25  C29 FTA A   1      10.513  20.104  27.128  1.00  0.00     0.002 A 
ATOM     26  C27 FTA A   1       9.776  20.642  26.067  1.00  0.00     0.029 A 
ENDBRANCH  19  21
ENDBRANCH  16  19
ENDBRANCH  11  13
ENDBRANCH   1  11
TORSDOF 5
ENDMDL
MODEL 5
REMARK VINA RESULT:    -5.648      7.168     10.574
REMARK INTER + INTRA:          -8.258
REMARK INTER:                  -7.291
REMARK INTRA:                  -0.967
REMARK UNBOUND:                -0.959
REMARK  5 active torsions:
REMARK  status: ('A' for Active; 'I' for Inactive)
REMARK    1  A    between atoms: N8_1  and  C24_2 
REMARK    2  A    between atoms: N8_1  and  C7_8 
REMARK    3  A    between atoms: C2_13  and  N1_14 
REMARK    4  A    between atoms: N1_14  and  C17_15 
REMARK    5  A    between atoms: C14_16  and  C13_19 
ROOT
ATOM      1  C17 FTA A   1       2.847  14.183  11.180  1.00  0.00     0.142 C 
ATOM      2  C14 FTA A   1       4.017  13.516  11.149  1.00  0.00     0.158 C 
ATOM      3  C18 FTA A   1       4.161  12.339  10.319  1.00  0.00     0.069 C 
ATOM      4  N21 FTA A   1       4.115  11.377   9.651  1.00  0.00    -0.197 NA
ENDROOT
BRANCH   2   5
ATOM      5  C13 FTA A   1       5.157  14.006  11.957  1.00  0.00     0.197 A 
ATOM      6  N15 FTA A   1       6.385  13.369  12.118  1.00  0.00    -0.093 NA
ATOM      7  N19 FTA A   1       7.146  14.140  12.987  1.00  0.00    -0.231 N 
ATOM      8  N20 FTA A   1       6.409  15.250  13.373  1.00  0.00    -0.017 NA
ATOM      9  H15 FTA A   1       8.105  13.923  13.296  1.00  0.00     0.200 HD
ATOM     10  N16 FTA A   1       5.180  15.175  12.727  1.00  0.00    -0.090 NA
ENDBRANCH   2   5
BRANCH   1  11
ATOM     11  N1  FTA A   1       2.271  14.431  12.372  1.00  0.00    -0.389 N 
ATOM     12  H11 FTA A   1       2.826  14.238  13.219  1.00  0.00     0.159 HD
BRANCH  11  13
ATOM     13  C2  FTA A   1       0.955  14.940  12.552  1.00  0.00     0.028 A 
ATOM     14  C4  FTA A   1       0.281  14.837  13.766  1.00  0.00     0.031 A 
ATOM     15  C6  FTA A   1      -1.086  15.146  13.813  1.00  0.00     0.031 A 
ATOM     16  C7  FTA A   1      -1.792  15.551  12.683  1.00  0.00     0.032 A 
ATOM     17  C5  FTA A   1      -1.102  15.672  11.490  1.00  0.00     0.031 A 
ATOM     18  C3  FTA A   1       0.250  15.357  11.420  1.00  0.00     0.031 A 
BRANCH  16  19
ATOM     19  N8  FTA A   1      -3.205  15.665  12.659  1.00  0.00    -0.356 N 
ATOM     20  H1  FTA A   1      -3.603  16.616  12.669  1.00  0.00     0.166 HD
BRANCH  19  21
ATOM     21  C24 FTA A   1      -4.123  14.572  12.623  1.00  0.00     0.032 A 
ATOM     22  C26 FTA A   1      -5.012  14.343  13.647  1.00  0.00     0.029 A 
ATOM     23  C28 FTA A   1      -5.750  13.175  13.634  1.00  0.00     0.002 A 
ATOM     24  C30 FTA A   1      -5.651  12.245  12.613  1.00  0.00     0.000 A 
ATOM     25  C29 FTA A   1      -4.797  12.480  11.568  1.00  0.00     0.002 A 
ATOM     26  C27 FTA A   1      -4.045  13.660  11.581  1.00  0.00     0.029 A 
ENDBRANCH  19  21
ENDBRANCH  16  19
ENDBRANCH  11  13
ENDBRANCH   1  11
TORSDOF 5
ENDMDL
MODEL 6
REMARK VINA RESULT:    -5.574      5.703      9.910
REMARK INTER + INTRA:          -8.163
REMARK INTER:                  -7.051
REMARK INTRA:                  -1.112
REMARK UNBOUND:                -0.959
REMARK  5 active torsions:
REMARK  status: ('A' for Active; 'I' for Inactive)
REMARK    1  A    between atoms: N8_1  and  C24_2 
REMARK    2  A    between atoms: N8_1  and  C7_8 
REMARK    3  A    between atoms: C2_13  and  N1_14 
REMARK    4  A    between atoms: N1_14  and  C17_15 
REMARK    5  A    between atoms: C14_16  and  C13_19 
ROOT
ATOM      1  C17 FTA A   1       7.001  20.174  19.437  1.00  0.00     0.142 C 
ATOM      2  C14 FTA A   1       5.751  20.185  19.942  1.00  0.00     0.158 C 
ATOM      3  C18 FTA A   1       5.165  21.425  20.405  1.00  0.00     0.069 C 
ATOM      4  N21 FTA A   1       4.844  22.483  20.793  1.00  0.00    -0.197 NA
ENDROOT
BRANCH   2   5
ATOM      5  C13 FTA A   1       4.979  18.923  20.002  1.00  0.00     0.197 A 
ATOM      6  N15 FTA A   1       5.419  17.715  20.538  1.00  0.00    -0.093 NA
ATOM      7  N19 FTA A   1       4.407  16.782  20.351  1.00  0.00    -0.231 N 
ATOM      8  N20 FTA A   1       3.341  17.390  19.703  1.00  0.00    -0.017 NA
ATOM      9  H15 FTA A   1       4.442  15.796  20.646  1.00  0.00     0.200 HD
ATOM     10  N16 FTA A   1       3.690  18.720  19.496  1.00  0.00    -0.090 NA
ENDBRANCH   2   5
BRANCH   1  11
ATOM     11  N1  FTA A   1       7.900  19.309  19.944  1.00  0.00    -0.389 N 
ATOM     12  H11 FTA A   1       8.156  18.495  19.366  1.00  0.00     0.159 HD
BRANCH  11  13
ATOM     13  C2  FTA A   1       8.523  19.432  21.216  1.00  0.00     0.028 A 
ATOM     14  C4  FTA A   1       9.173  20.598  21.613  1.00  0.00     0.031 A 
ATOM     15  C6  FTA A   1       9.959  20.577  22.773  1.00  0.00     0.031 A 
ATOM     16  C7  FTA A   1      10.113  19.427  23.542  1.00  0.00     0.032 A 
ATOM     17  C5  FTA A   1       9.441  18.283  23.148  1.00  0.00     0.031 A 
ATOM     18  C3  FTA A   1       8.668  18.280  21.994  1.00  0.00     0.031 A 
BRANCH  16  19
ATOM     19  N8  FTA A   1      11.061  19.324  24.592  1.00  0.00    -0.356 N 
ATOM     20  H1  FTA A   1      12.013  19.021  24.341  1.00  0.00     0.166 HD
BRANCH  19  21
ATOM     21  C24 FTA A   1      10.805  19.607  25.968  1.00  0.00     0.032 A 
ATOM     22  C26 FTA A   1       9.790  20.450  26.353  1.00  0.00     0.029 A 
ATOM     23  C28 FTA A   1       9.703  20.818  27.682  1.00  0.00     0.002 A 
ATOM     24  C30 FTA A   1      10.580  20.343  28.643  1.00  0.00     0.000 A 
ATOM     25  C29 FTA A   1      11.572  19.473  28.279  1.00  0.00     0.002 A 
ATOM     26  C27 FTA A   1      11.664  19.101  26.932  1.00  0.00     0.029 A 
ENDBRANCH  19  21
ENDBRANCH  16  19
ENDBRANCH  11  13
ENDBRANCH   1  11
TORSDOF 5
ENDMDL
MODEL 7
REMARK VINA RESULT:    -5.531      4.444     10.180
REMARK INTER + INTRA:          -8.107
REMARK INTER:                  -7.107
REMARK INTRA:                  -1.000
REMARK UNBOUND:                -0.959
REMARK  5 active torsions:
REMARK  status: ('A' for Active; 'I' for Inactive)
REMARK    1  A    between atoms: N8_1  and  C24_2 
REMARK    2  A    between atoms: N8_1  and  C7_8 
REMARK    3  A    between atoms: C2_13  and  N1_14 
REMARK    4  A    between atoms: N1_14  and  C17_15 
REMARK    5  A    between atoms: C14_16  and  C13_19 
ROOT
ATOM      1  C17 FTA A   1       5.622  19.170  20.478  1.00  0.00     0.142 C 
ATOM      2  C14 FTA A   1       4.979  18.524  19.485  1.00  0.00     0.158 C 
ATOM      3  C18 FTA A   1       3.544  18.648  19.346  1.00  0.00     0.069 C 
ATOM      4  N21 FTA A   1       2.382  18.793  19.391  1.00  0.00    -0.197 NA
ENDROOT
BRANCH   2   5
ATOM      5  C13 FTA A   1       5.756  17.701  18.530  1.00  0.00     0.197 A 
ATOM      6  N15 FTA A   1       5.230  16.822  17.585  1.00  0.00    -0.093 NA
ATOM      7  N19 FTA A   1       6.299  16.223  16.932  1.00  0.00    -0.231 N 
ATOM      8  N20 FTA A   1       7.486  16.713  17.456  1.00  0.00    -0.017 NA
ATOM      9  H15 FTA A   1       6.222  15.525  16.178  1.00  0.00     0.200 HD
ATOM     10  N16 FTA A   1       7.151  17.638  18.440  1.00  0.00    -0.090 NA
ENDBRANCH   2   5
BRANCH   1  11
ATOM     11  N1  FTA A   1       6.434  18.469  21.293  1.00  0.00    -0.389 N 
ATOM     12  H11 FTA A   1       6.221  17.470  21.432  1.00  0.00     0.159 HD
BRANCH  11  13
ATOM     13  C2  FTA A   1       7.561  19.001  21.976  1.00  0.00     0.028 A 
ATOM     14  C4  FTA A   1       8.670  18.222  22.295  1.00  0.00     0.031 A 
ATOM     15  C6  FTA A   1       9.639  18.742  23.164  1.00  0.00     0.031 A 
ATOM     16  C7  FTA A   1       9.527  20.012  23.723  1.00  0.00     0.032 A 
ATOM     17  C5  FTA A   1       8.432  20.783  23.377  1.00  0.00     0.031 A 
ATOM     18  C3  FTA A   1       7.454  20.281  22.527  1.00  0.00     0.031 A 
BRANCH  16  19
ATOM     19  N8  FTA A   1      10.377  20.475  24.759  1.00  0.00    -0.356 N 
ATOM     20  H1  FTA A   1      11.188  21.048  24.484  1.00  0.00     0.166 HD
BRANCH  19  21
ATOM     21  C24 FTA A   1      10.202  20.213  26.152  1.00  0.00     0.032 A 
ATOM     22  C26 FTA A   1       9.343  20.959  26.923  1.00  0.00     0.029 A 
ATOM     23  C28 FTA A   1       9.347  20.769  28.292  1.00  0.00     0.002 A 
ATOM     24  C30 FTA A   1      10.161  19.835  28.910  1.00  0.00     0.000 A 
ATOM     25  C29 FTA A   1      10.994  19.059  28.148  1.00  0.00     0.002 A 
ATOM     26  C27 FTA A   1      10.995  19.252  26.762  1.00  0.00     0.029 A 
ENDBRANCH  19  21
ENDBRANCH  16  19
ENDBRANCH  11  13
ENDBRANCH   1  11
TORSDOF 5
ENDMDL
MODEL 8
REMARK VINA RESULT:    -5.497      4.263      8.099
REMARK INTER + INTRA:          -8.063
REMARK INTER:                  -7.013
REMARK INTRA:                  -1.050
REMARK UNBOUND:                -0.959
REMARK  5 active torsions:
REMARK  status: ('A' for Active; 'I' for Inactive)
REMARK    1  A    between atoms: N8_1  and  C24_2 
REMARK    2  A    between atoms: N8_1  and  C7_8 
REMARK    3  A    between atoms: C2_13  and  N1_14 
REMARK    4  A    between atoms: N1_14  and  C17_15 
REMARK    5  A    between atoms: C14_16  and  C13_19 
ROOT
ATOM      1  C17 FTA A   1      10.584  19.339  25.564  1.00  0.00     0.142 C 
ATOM      2  C14 FTA A   1      10.703  20.615  25.983  1.00  0.00     0.158 C 
ATOM      3  C18 FTA A   1       9.624  21.244  26.714  1.00  0.00     0.069 C 
ATOM      4  N21 FTA A   1       8.654  21.639  27.241  1.00  0.00    -0.197 NA
ENDROOT
BRANCH   2   5
ATOM      5  C13 FTA A   1      11.951  21.360  25.702  1.00  0.00     0.197 A 
ATOM      6  N15 FTA A   1      12.401  22.493  26.376  1.00  0.00    -0.093 NA
ATOM      7  N19 FTA A   1      13.583  22.899  25.768  1.00  0.00    -0.231 N 
ATOM      8  N20 FTA A   1      13.876  22.035  24.723  1.00  0.00    -0.017 NA
ATOM      9  H15 FTA A   1      14.151  23.711  26.049  1.00  0.00     0.200 HD
ATOM     10  N16 FTA A   1      12.872  21.074  24.687  1.00  0.00    -0.090 NA
ENDBRANCH   2   5
BRANCH   1  11
ATOM     11  N1  FTA A   1      10.804  19.057  24.266  1.00  0.00    -0.389 N 
ATOM     12  H11 FTA A   1      11.743  18.724  24.004  1.00  0.00     0.159 HD
BRANCH  11  13
ATOM     13  C2  FTA A   1       9.839  19.182  23.230  1.00  0.00     0.028 A 
ATOM     14  C4  FTA A   1       9.132  18.087  22.738  1.00  0.00     0.031 A 
ATOM     15  C6  FTA A   1       8.372  18.237  21.570  1.00  0.00     0.031 A 
ATOM     16  C7  FTA A   1       8.302  19.446  20.883  1.00  0.00     0.032 A 
ATOM     17  C5  FTA A   1       8.989  20.531  21.398  1.00  0.00     0.031 A 
ATOM     18  C3  FTA A   1       9.759  20.400  22.547  1.00  0.00     0.031 A 
BRANCH  16  19
ATOM     19  N8  FTA A   1       7.716  19.568  19.597  1.00  0.00    -0.356 N 
ATOM     20  H1  FTA A   1       7.982  20.388  19.032  1.00  0.00     0.166 HD
BRANCH  19  21
ATOM     21  C24 FTA A   1       6.788  18.648  19.021  1.00  0.00     0.032 A 
ATOM     22  C26 FTA A   1       5.505  18.525  19.500  1.00  0.00     0.029 A 
ATOM     23  C28 FTA A   1       4.714  17.500  19.016  1.00  0.00     0.002 A 
ATOM     24  C30 FTA A   1       5.155  16.616  18.046  1.00  0.00     0.000 A 
ATOM     25  C29 FTA A   1       6.417  16.752  17.534  1.00  0.00     0.002 A 
ATOM     26  C27 FTA A   1       7.222  17.786  18.024  1.00  0.00     0.029 A 
ENDBRANCH  19  21
ENDBRANCH  16  19
ENDBRANCH  11  13
ENDBRANCH   1  11
TORSDOF 5
ENDMDL
MODEL 9
REMARK VINA RESULT:    -5.470      5.454      7.371
REMARK INTER + INTRA:          -8.028
REMARK INTER:                  -7.069
REMARK INTRA:                  -0.959
REMARK UNBOUND:                -0.959
REMARK  5 active torsions:
REMARK  status: ('A' for Active; 'I' for Inactive)
REMARK    1  A    between atoms: N8_1  and  C24_2 
REMARK    2  A    between atoms: N8_1  and  C7_8 
REMARK    3  A    between atoms: C2_13  and  N1_14 
REMARK    4  A    between atoms: N1_14  and  C17_15 
REMARK    5  A    between atoms: C14_16  and  C13_19 
ROOT
ATOM      1  C17 FTA A   1       0.439  14.473  12.575  1.00  0.00     0.142 C 
ATOM      2  C14 FTA A   1      -0.649  14.988  13.183  1.00  0.00     0.158 C 
ATOM      3  C18 FTA A   1      -1.975  14.638  12.720  1.00  0.00     0.069 C 
ATOM      4  N21 FTA A   1      -2.976  14.314  12.204  1.00  0.00    -0.197 NA
ENDROOT
BRANCH   2   5
ATOM      5  C13 FTA A   1      -0.475  15.899  14.337  1.00  0.00     0.197 A 
ATOM      6  N15 FTA A   1      -1.483  16.618  14.977  1.00  0.00    -0.093 NA
ATOM      7  N19 FTA A   1      -0.886  17.379  15.973  1.00  0.00    -0.231 N 
ATOM      8  N20 FTA A   1       0.482  17.150  15.963  1.00  0.00    -0.017 NA
ATOM      9  H15 FTA A   1      -1.380  18.015  16.616  1.00  0.00     0.200 HD
ATOM     10  N16 FTA A   1       0.737  16.224  14.957  1.00  0.00    -0.090 NA
ENDBRANCH   2   5
BRANCH   1  11
ATOM     11  N1  FTA A   1       1.399  15.312  12.140  1.00  0.00    -0.389 N 
ATOM     12  H11 FTA A   1       1.106  16.249  11.827  1.00  0.00     0.159 HD
BRANCH  11  13
ATOM     13  C2  FTA A   1       2.785  15.003  12.080  1.00  0.00     0.028 A 
ATOM     14  C4  FTA A   1       3.249  13.758  11.662  1.00  0.00     0.031 A 
ATOM     15  C6  FTA A   1       4.602  13.441  11.844  1.00  0.00     0.031 A 
ATOM     16  C7  FTA A   1       5.498  14.329  12.433  1.00  0.00     0.032 A 
ATOM     17  C5  FTA A   1       5.026  15.571  12.820  1.00  0.00     0.031 A 
ATOM     18  C3  FTA A   1       3.686  15.900  12.660  1.00  0.00     0.031 A 
BRANCH  16  19
ATOM     19  N8  FTA A   1       6.812  13.957  12.817  1.00  0.00    -0.356 N 
ATOM     20  H1  FTA A   1       7.000  13.862  13.825  1.00  0.00     0.166 HD
BRANCH  19  21
ATOM     21  C24 FTA A   1       7.894  13.702  11.921  1.00  0.00     0.032 A 
ATOM     22  C26 FTA A   1       7.951  12.553  11.169  1.00  0.00     0.029 A 
ATOM     23  C28 FTA A   1       9.104  12.286  10.455  1.00  0.00     0.002 A 
ATOM     24  C30 FTA A   1      10.188  13.148  10.444  1.00  0.00     0.000 A 
ATOM     25  C29 FTA A   1      10.127  14.314  11.158  1.00  0.00     0.002 A 
ATOM     26  C27 FTA A   1       8.963  14.586  11.885  1.00  0.00     0.029 A 
ENDBRANCH  19  21
ENDBRANCH  16  19
ENDBRANCH  11  13
ENDBRANCH   1  11
TORSDOF 5
ENDMDL
