MODEL 1
REMARK minimizedAffinity -9.1628952
REMARK minimizedRMSD -1
REMARK  5 active torsions:
REMARK  status: ('A' for Active; 'I' for Inactive)
REMARK    1  A    between atoms: C_2  and  C_4 
REMARK    2  A    between atoms: C_6  and  C_12 
REMARK    3  A    between atoms: C_7  and  O_8 
REMARK    4  A    between atoms: C_10  and  O_11 
REMARK    5  A    between atoms: N_17  and  C_18 
ROOT
HETATM    1  C   UNL     1      -0.782  10.202  26.611  0.00  0.00     0.171 A 
HETATM    2  N   UNL     1      -1.558  10.457  27.637  0.00  0.00    -0.151 NA
HETATM    3  N   UNL     1      -1.262   9.471  28.535  0.00  0.00    -0.226 N 
HETATM    4  C   UNL     1      -0.321   8.587  28.010  0.00  0.00     0.349 A 
HETATM    5  O   UNL     1       0.059   7.563  28.556  0.00  0.00    -0.245 OA
HETATM    6  N   UNL     1       0.024   9.107  26.783  0.00  0.00    -0.244 N 
HETATM    7  H   UNL     1      -1.727   9.365  29.425  0.00  0.00     0.194 HD
ENDROOT
BRANCH   1   8
HETATM    8  C   UNL     1      -0.798  11.051  25.402  0.00  0.00     0.046 A 
HETATM    9  C   UNL     1       0.370  11.666  24.946  0.00  0.00     0.028 A 
HETATM   10  C   UNL     1       0.411  12.382  23.737  0.00  0.00    -0.021 A 
HETATM   11  C   UNL     1      -0.779  12.492  23.005  0.00  0.00     0.075 A 
HETATM   12  C   UNL     1      -1.978  11.982  23.496  0.00  0.00     0.074 A 
HETATM   13  C   UNL     1      -1.988  11.279  24.701  0.00  0.00     0.082 A 
BRANCH  10  14
HETATM   14  C   UNL     1       1.721  12.990  23.273  0.00  0.00     0.013 C 
HETATM   15  C   UNL     1       2.074  14.235  24.099  0.00  0.00     0.015 C 
HETATM   16  C   UNL     1       2.859  11.963  23.341  0.00  0.00     0.015 C 
ENDBRANCH  10  14
BRANCH  11  17
HETATM   17  O   UNL     1      -0.753  13.117  21.790  0.00  0.00    -0.360 OA
HETATM   18  H   UNL     1      -1.584  12.922  21.326  0.00  0.00     0.217 HD
ENDBRANCH  11  17
BRANCH  13  19
HETATM   19  O   UNL     1      -3.213  10.845  25.138  0.00  0.00    -0.360 OA
HETATM   20  H   UNL     1      -3.113  10.543  26.068  0.00  0.00     0.217 HD
ENDBRANCH  13  19
ENDBRANCH   1   8
BRANCH   6  21
HETATM   21  C   UNL     1       0.795   8.377  25.864  0.00  0.00     0.046 A 
HETATM   22  C   UNL     1       2.168   8.619  25.722  0.00  0.00     0.044 A 
HETATM   23  C   UNL     1       2.865   8.007  24.655  0.00  0.00    -0.006 A 
HETATM   24  C   UNL     1       4.190   8.123  24.149  0.00  0.00     0.031 A 
HETATM   25  C   UNL     1       2.189   7.108  23.823  0.00  0.00     0.044 A 
HETATM   26  C   UNL     1       4.293   7.313  23.040  0.00  0.00     0.091 A 
HETATM   27  N   UNL     1       3.102   6.653  22.893  0.00  0.00    -0.360 N 
HETATM   28  C   UNL     1       2.838   5.652  21.881  0.00  0.00     0.155 C 
HETATM   29  C   UNL     1       0.830   6.812  23.995  0.00  0.00     0.033 A 
HETATM   30  C   UNL     1       0.138   7.497  24.998  0.00  0.00     0.032 A 
ENDBRANCH   6  21
TORSDOF 5
ENDMDL
MODEL 2
REMARK minimizedAffinity -6.99518251
REMARK minimizedRMSD -1
REMARK  5 active torsions:
REMARK  status: ('A' for Active; 'I' for Inactive)
REMARK    1  A    between atoms: C_2  and  C_4 
REMARK    2  A    between atoms: C_6  and  C_12 
REMARK    3  A    between atoms: C_7  and  O_8 
REMARK    4  A    between atoms: C_10  and  O_11 
REMARK    5  A    between atoms: N_17  and  C_18 
ROOT
HETATM    1  C   UNL     1       0.249   8.429  26.905  0.00  0.00     0.171 A 
HETATM    2  N   UNL     1       0.256   8.140  28.184  0.00  0.00    -0.151 NA
HETATM    3  N   UNL     1      -0.542   9.096  28.747  0.00  0.00    -0.226 N 
HETATM    4  C   UNL     1      -0.996   9.996  27.785  0.00  0.00     0.349 A 
HETATM    5  O   UNL     1      -1.650  11.000  28.017  0.00  0.00    -0.245 OA
HETATM    6  N   UNL     1      -0.522   9.516  26.585  0.00  0.00    -0.244 N 
HETATM    7  H   UNL     1      -0.708   9.172  29.741  0.00  0.00     0.194 HD
ENDROOT
BRANCH   1   8
HETATM    8  C   UNL     1       1.007   7.620  25.927  0.00  0.00     0.046 A 
HETATM    9  C   UNL     1       2.401   7.562  25.977  0.00  0.00     0.028 A 
HETATM   10  C   UNL     1       3.140   6.712  25.136  0.00  0.00    -0.021 A 
HETATM   11  C   UNL     1       2.432   5.936  24.210  0.00  0.00     0.075 A 
HETATM   12  C   UNL     1       1.052   6.061  24.068  0.00  0.00     0.074 A 
HETATM   13  C   UNL     1       0.345   6.916  24.914  0.00  0.00     0.082 A 
BRANCH  10  14
HETATM   14  C   UNL     1       4.651   6.660  25.269  0.00  0.00     0.013 C 
HETATM   15  C   UNL     1       5.277   8.031  24.977  0.00  0.00     0.015 C 
HETATM   16  C   UNL     1       5.065   6.169  26.662  0.00  0.00     0.015 C 
ENDBRANCH  10  14
BRANCH  11  17
HETATM   17  O   UNL     1       3.117   5.045  23.432  0.00  0.00    -0.360 OA
HETATM   18  H   UNL     1       2.477   4.447  23.012  0.00  0.00     0.217 HD
ENDBRANCH  11  17
BRANCH  13  19
HETATM   19  O   UNL     1      -1.002   7.016  24.685  0.00  0.00    -0.360 OA
HETATM   20  H   UNL     1      -1.342   7.776  25.206  0.00  0.00     0.217 HD
ENDBRANCH  13  19
ENDBRANCH   1   8
BRANCH   6  21
HETATM   21  C   UNL     1      -0.599  10.275  25.406  0.00  0.00     0.046 A 
HETATM   22  C   UNL     1       0.545  10.865  24.852  0.00  0.00     0.044 A 
HETATM   23  C   UNL     1       0.396  11.777  23.782  0.00  0.00    -0.006 A 
HETATM   24  C   UNL     1       1.296  12.631  23.084  0.00  0.00     0.031 A 
HETATM   25  C   UNL     1      -0.876  12.002  23.247  0.00  0.00     0.044 A 
HETATM   26  C   UNL     1       0.569  13.347  22.159  0.00  0.00     0.091 A 
HETATM   27  N   UNL     1      -0.727  12.911  22.218  0.00  0.00    -0.360 N 
HETATM   28  C   UNL     1      -1.788  13.370  21.347  0.00  0.00     0.155 C 
HETATM   29  C   UNL     1      -2.019  11.371  23.755  0.00  0.00     0.033 A 
HETATM   30  C   UNL     1      -1.863  10.542  24.869  0.00  0.00     0.032 A 
ENDBRANCH   6  21
TORSDOF 5
ENDMDL
MODEL 3
REMARK minimizedAffinity -6.79493618
REMARK minimizedRMSD -1
REMARK  5 active torsions:
REMARK  status: ('A' for Active; 'I' for Inactive)
REMARK    1  A    between atoms: C_2  and  C_4 
REMARK    2  A    between atoms: C_6  and  C_12 
REMARK    3  A    between atoms: C_7  and  O_8 
REMARK    4  A    between atoms: C_10  and  O_11 
REMARK    5  A    between atoms: N_17  and  C_18 
ROOT
HETATM    1  C   UNL     1       2.911   7.734  26.446  0.00  0.00     0.171 A 
HETATM    2  N   UNL     1       2.991   7.379  27.706  0.00  0.00    -0.151 NA
HETATM    3  N   UNL     1       4.098   6.579  27.759  0.00  0.00    -0.226 N 
HETATM    4  C   UNL     1       4.659   6.422  26.493  0.00  0.00     0.349 A 
HETATM    5  O   UNL     1       5.599   5.689  26.230  0.00  0.00    -0.245 OA
HETATM    6  N   UNL     1       3.913   7.225  25.660  0.00  0.00    -0.244 N 
HETATM    7  H   UNL     1       4.409   6.109  28.597  0.00  0.00     0.194 HD
ENDROOT
BRANCH   1   8
HETATM    8  C   UNL     1       1.830   8.616  25.960  0.00  0.00     0.046 A 
HETATM    9  C   UNL     1       2.120   9.748  25.196  0.00  0.00     0.028 A 
HETATM   10  C   UNL     1       1.109  10.539  24.623  0.00  0.00    -0.021 A 
HETATM   11  C   UNL     1      -0.221  10.174  24.869  0.00  0.00     0.075 A 
HETATM   12  C   UNL     1      -0.534   9.115  25.719  0.00  0.00     0.074 A 
HETATM   13  C   UNL     1       0.492   8.351  26.276  0.00  0.00     0.082 A 
BRANCH  10  14
HETATM   14  C   UNL     1       1.489  11.731  23.765  0.00  0.00     0.013 C 
HETATM   15  C   UNL     1       1.208  13.050  24.500  0.00  0.00     0.015 C 
HETATM   16  C   UNL     1       2.963  11.659  23.343  0.00  0.00     0.015 C 
ENDBRANCH  10  14
BRANCH  11  17
HETATM   17  O   UNL     1      -1.223  10.878  24.264  0.00  0.00    -0.360 OA
HETATM   18  H   UNL     1      -2.051  10.379  24.359  0.00  0.00     0.217 HD
ENDBRANCH  11  17
BRANCH  13  19
HETATM   19  O   UNL     1       0.105   7.354  27.134  0.00  0.00    -0.360 OA
HETATM   20  H   UNL     1       0.907   7.025  27.597  0.00  0.00     0.217 HD
ENDBRANCH  13  19
ENDBRANCH   1   8
BRANCH   6  21
HETATM   21  C   UNL     1       4.048   7.165  24.264  0.00  0.00     0.046 A 
HETATM   22  C   UNL     1       4.613   8.230  23.549  0.00  0.00     0.044 A 
HETATM   23  C   UNL     1       4.552   8.215  22.136  0.00  0.00    -0.006 A 
HETATM   24  C   UNL     1       4.897   9.157  21.126  0.00  0.00     0.031 A 
HETATM   25  C   UNL     1       4.009   7.101  21.486  0.00  0.00     0.044 A 
HETATM   26  C   UNL     1       4.562   8.611  19.907  0.00  0.00     0.091 A 
HETATM   27  N   UNL     1       4.092   7.345  20.130  0.00  0.00    -0.360 N 
HETATM   28  C   UNL     1       3.705   6.417  19.088  0.00  0.00     0.155 C 
HETATM   29  C   UNL     1       3.497   6.004  22.192  0.00  0.00     0.033 A 
HETATM   30  C   UNL     1       3.485   6.078  23.588  0.00  0.00     0.032 A 
ENDBRANCH   6  21
TORSDOF 5
ENDMDL
MODEL 4
REMARK minimizedAffinity -6.26605368
REMARK minimizedRMSD -1
REMARK  5 active torsions:
REMARK  status: ('A' for Active; 'I' for Inactive)
REMARK    1  A    between atoms: C_2  and  C_4 
REMARK    2  A    between atoms: C_6  and  C_12 
REMARK    3  A    between atoms: C_7  and  O_8 
REMARK    4  A    between atoms: C_10  and  O_11 
REMARK    5  A    between atoms: N_17  and  C_18 
ROOT
HETATM    1  C   UNL     1       0.579   9.474  26.740  0.00  0.00     0.171 A 
HETATM    2  N   UNL     1      -0.002   9.098  27.855  0.00  0.00    -0.151 NA
HETATM    3  N   UNL     1       0.864   8.188  28.393  0.00  0.00    -0.226 N 
HETATM    4  C   UNL     1       1.960   7.987  27.556  0.00  0.00     0.349 A 
HETATM    5  O   UNL     1       2.842   7.165  27.741  0.00  0.00    -0.245 OA
HETATM    6  N   UNL     1       1.790   8.872  26.515  0.00  0.00    -0.244 N 
HETATM    7  H   UNL     1       0.682   7.679  29.246  0.00  0.00     0.194 HD
ENDROOT
BRANCH   1   8
HETATM    8  C   UNL     1      -0.045  10.468  25.843  0.00  0.00     0.046 A 
HETATM    9  C   UNL     1       0.740  11.291  25.033  0.00  0.00     0.028 A 
HETATM   10  C   UNL     1       0.174  12.162  24.086  0.00  0.00    -0.021 A 
HETATM   11  C   UNL     1      -1.223  12.208  23.997  0.00  0.00     0.075 A 
HETATM   12  C   UNL     1      -2.027  11.478  24.871  0.00  0.00     0.074 A 
HETATM   13  C   UNL     1      -1.436  10.624  25.803  0.00  0.00     0.082 A 
BRANCH  10  14
HETATM   14  C   UNL     1       1.082  12.999  23.204  0.00  0.00     0.013 C 
HETATM   15  C   UNL     1       1.402  14.347  23.866  0.00  0.00     0.015 C 
HETATM   16  C   UNL     1       2.377  12.245  22.875  0.00  0.00     0.015 C 
ENDBRANCH  10  14
BRANCH  11  17
HETATM   17  O   UNL     1      -1.800  12.988  23.035  0.00  0.00    -0.360 OA
HETATM   18  H   UNL     1      -2.739  12.747  22.965  0.00  0.00     0.217 HD
ENDBRANCH  11  17
BRANCH  13  19
HETATM   19  O   UNL     1      -2.291   9.974  26.655  0.00  0.00    -0.360 OA
HETATM   20  H   UNL     1      -1.754   9.566  27.369  0.00  0.00     0.217 HD
ENDBRANCH  13  19
ENDBRANCH   1   8
BRANCH   6  21
HETATM   21  C   UNL     1       2.589   8.815  25.361  0.00  0.00     0.046 A 
HETATM   22  C   UNL     1       3.795   9.525  25.284  0.00  0.00     0.044 A 
HETATM   23  C   UNL     1       4.468   9.599  24.042  0.00  0.00    -0.006 A 
HETATM   24  C   UNL     1       5.609  10.315  23.582  0.00  0.00     0.031 A 
HETATM   25  C   UNL     1       3.962   8.892  22.947  0.00  0.00     0.044 A 
HETATM   26  C   UNL     1       5.771  10.038  22.243  0.00  0.00     0.091 A 
HETATM   27  N   UNL     1       4.814   9.126  21.886  0.00  0.00    -0.360 N 
HETATM   28  C   UNL     1       4.700   8.527  20.573  0.00  0.00     0.155 C 
HETATM   29  C   UNL     1       2.789   8.128  23.031  0.00  0.00     0.033 A 
HETATM   30  C   UNL     1       2.091   8.142  24.241  0.00  0.00     0.032 A 
ENDBRANCH   6  21
TORSDOF 5
ENDMDL
MODEL 5
REMARK minimizedAffinity -6.2506218
REMARK minimizedRMSD -1
REMARK  5 active torsions:
REMARK  status: ('A' for Active; 'I' for Inactive)
REMARK    1  A    between atoms: C_2  and  C_4 
REMARK    2  A    between atoms: C_6  and  C_12 
REMARK    3  A    between atoms: C_7  and  O_8 
REMARK    4  A    between atoms: C_10  and  O_11 
REMARK    5  A    between atoms: N_17  and  C_18 
ROOT
HETATM    1  C   UNL     1       1.322   9.711  24.293  0.00  0.00     0.171 A 
HETATM    2  N   UNL     1       0.234  10.314  24.708  0.00  0.00    -0.151 NA
HETATM    3  N   UNL     1       0.611  11.619  24.858  0.00  0.00    -0.226 N 
HETATM    4  C   UNL     1       1.964  11.783  24.569  0.00  0.00     0.349 A 
HETATM    5  O   UNL     1       2.590  12.822  24.706  0.00  0.00    -0.245 OA
HETATM    6  N   UNL     1       2.399  10.547  24.146  0.00  0.00    -0.244 N 
HETATM    7  H   UNL     1      -0.001  12.342  25.209  0.00  0.00     0.194 HD
ENDROOT
BRANCH   1   8
HETATM    8  C   UNL     1       1.340   8.261  24.007  0.00  0.00     0.046 A 
HETATM    9  C   UNL     1       2.348   7.700  23.221  0.00  0.00     0.028 A 
HETATM   10  C   UNL     1       2.457   6.312  23.030  0.00  0.00    -0.021 A 
HETATM   11  C   UNL     1       1.492   5.495  23.632  0.00  0.00     0.075 A 
HETATM   12  C   UNL     1       0.414   6.040  24.327  0.00  0.00     0.074 A 
HETATM   13  C   UNL     1       0.332   7.422  24.497  0.00  0.00     0.082 A 
BRANCH  10  14
HETATM   14  C   UNL     1       3.602   5.759  22.202  0.00  0.00     0.013 C 
HETATM   15  C   UNL     1       4.048   6.770  21.136  0.00  0.00     0.015 C 
HETATM   16  C   UNL     1       4.787   5.366  23.094  0.00  0.00     0.015 C 
ENDBRANCH  10  14
BRANCH  11  17
HETATM   17  O   UNL     1       1.615   4.138  23.527  0.00  0.00    -0.360 OA
HETATM   18  H   UNL     1       1.009   3.723  24.164  0.00  0.00     0.217 HD
ENDBRANCH  11  17
BRANCH  13  19
HETATM   19  O   UNL     1      -0.779   7.885  25.155  0.00  0.00    -0.360 OA
HETATM   20  H   UNL     1      -0.813   8.860  25.041  0.00  0.00     0.217 HD
ENDBRANCH  13  19
ENDBRANCH   1   8
BRANCH   6  21
HETATM   21  C   UNL     1       3.763  10.268  23.966  0.00  0.00     0.046 A 
HETATM   22  C   UNL     1       4.477  10.818  22.893  0.00  0.00     0.044 A 
HETATM   23  C   UNL     1       5.789  10.360  22.635  0.00  0.00    -0.006 A 
HETATM   24  C   UNL     1       6.727  10.595  21.591  0.00  0.00     0.031 A 
HETATM   25  C   UNL     1       6.374   9.436  23.507  0.00  0.00     0.044 A 
HETATM   26  C   UNL     1       7.840   9.824  21.840  0.00  0.00     0.091 A 
HETATM   27  N   UNL     1       7.646   9.181  23.033  0.00  0.00    -0.360 N 
HETATM   28  C   UNL     1       8.625   8.332  23.677  0.00  0.00     0.155 C 
HETATM   29  C   UNL     1       5.691   8.926  24.619  0.00  0.00     0.033 A 
HETATM   30  C   UNL     1       4.364   9.322  24.804  0.00  0.00     0.032 A 
ENDBRANCH   6  21
TORSDOF 5
ENDMDL
