MODEL 1
REMARK VINA RESULT:    -7.604      0.000      0.000
REMARK INTER + INTRA:         -12.690
REMARK INTER:                 -10.949
REMARK INTRA:                  -1.741
REMARK UNBOUND:                -1.974
REMARK  8 active torsions:
REMARK  status: ('A' for Active; 'I' for Inactive)
REMARK    1  A    between atoms: C_2  and  C_3 
REMARK    2  A    between atoms: C_3  and  N_4 
REMARK    3  A    between atoms: N_4  and  S_6 
REMARK    4  A    between atoms: S_6  and  C_9 
REMARK    5  A    between atoms: C_11  and  C_17 
REMARK    6  A    between atoms: C_12  and  O_13 
REMARK    7  A    between atoms: C_15  and  O_16 
REMARK    8  A    between atoms: N_23  and  C_24 
ROOT
HETATM    1  C   UNL     1       1.665  13.694  20.960  0.00  0.00     0.108 A 
HETATM    2  C   UNL     1       0.637  13.713  21.913  0.00  0.00     0.046 A 
HETATM    3  C   UNL     1      -0.471  12.868  21.799  0.00  0.00     0.047 A 
HETATM    4  C   UNL     1      -0.464  11.897  20.789  0.00  0.00     0.082 A 
HETATM    5  C   UNL     1       0.578  11.841  19.863  0.00  0.00     0.075 A 
HETATM    6  C   UNL     1       1.634  12.756  19.933  0.00  0.00     0.091 A 
ENDROOT
BRANCH   3   7
HETATM    7  C   UNL     1      -1.590  12.948  22.764  0.00  0.00     0.172 A 
HETATM    8  N   UNL     1      -1.590  12.243  23.868  0.00  0.00    -0.151 NA
HETATM    9  N   UNL     1      -2.688  12.687  24.547  0.00  0.00    -0.226 N 
HETATM   10  H   UNL     1      -2.956  12.346  25.461  0.00  0.00     0.194 HD
HETATM   11  C   UNL     1      -3.355  13.678  23.831  0.00  0.00     0.349 A 
HETATM   12  O   UNL     1      -4.359  14.254  24.202  0.00  0.00    -0.245 OA
HETATM   13  N   UNL     1      -2.649  13.811  22.656  0.00  0.00    -0.241 N 
BRANCH  13  14
HETATM   14  C   UNL     1      -3.126  14.555  21.561  0.00  0.00     0.084 A 
HETATM   15  C   UNL     1      -2.675  15.854  21.296  0.00  0.00     0.143 A 
HETATM   16  F   UNL     1      -1.726  16.411  22.065  0.00  0.00    -0.204 F 
HETATM   17  C   UNL     1      -3.170  16.579  20.214  0.00  0.00     0.044 A 
HETATM   18  C   UNL     1      -4.156  16.018  19.402  0.00  0.00     0.003 A 
HETATM   19  C   UNL     1      -4.627  14.731  19.665  0.00  0.00     0.002 A 
HETATM   20  C   UNL     1      -4.095  13.992  20.724  0.00  0.00     0.033 A 
ENDBRANCH  13  14
ENDBRANCH   3   7
BRANCH   4  21
HETATM   21  O   UNL     1      -1.441  10.947  20.653  0.00  0.00    -0.360 OA
HETATM   22  H   UNL     1      -2.113  11.281  20.020  0.00  0.00     0.217 HD
ENDBRANCH   4  21
BRANCH   1  23
HETATM   23  S   UNL     1       2.802  15.066  20.998  0.00  0.00     0.246 S 
HETATM   24  O   UNL     1       2.219  16.058  21.884  0.00  0.00    -0.206 OA
HETATM   25  O   UNL     1       3.162  15.448  19.653  0.00  0.00    -0.206 OA
BRANCH  23  26
HETATM   26  N   UNL     1       4.224  14.476  21.791  0.00  0.00    -0.210 NA
HETATM   27  C   UNL     1       3.975  14.357  23.256  0.00  0.00     0.129 C 
BRANCH  26  28
HETATM   28  C   UNL     1       5.450  15.272  21.472  0.00  0.00     0.106 C 
BRANCH  28  29
HETATM   29  C   UNL     1       6.565  15.126  22.512  0.00  0.00     0.011 C 
HETATM   30  C   UNL     1       7.392  16.390  22.694  0.00  0.00     0.006 C 
ENDBRANCH  28  29
ENDBRANCH  26  28
ENDBRANCH  23  26
ENDBRANCH   1  23
BRANCH   6  31
HETATM   31  O   UNL     1       2.638  12.677  19.017  0.00  0.00    -0.359 OA
HETATM   32  H   UNL     1       3.245  11.955  19.256  0.00  0.00     0.217 HD
ENDBRANCH   6  31
TORSDOF 8
ENDMDL
MODEL 2
REMARK VINA RESULT:    -7.534      3.187      6.977
REMARK INTER + INTRA:         -12.590
REMARK INTER:                  -9.845
REMARK INTRA:                  -2.746
REMARK UNBOUND:                -1.974
REMARK  8 active torsions:
REMARK  status: ('A' for Active; 'I' for Inactive)
REMARK    1  A    between atoms: C_2  and  C_3 
REMARK    2  A    between atoms: C_3  and  N_4 
REMARK    3  A    between atoms: N_4  and  S_6 
REMARK    4  A    between atoms: S_6  and  C_9 
REMARK    5  A    between atoms: C_11  and  C_17 
REMARK    6  A    between atoms: C_12  and  O_13 
REMARK    7  A    between atoms: C_15  and  O_16 
REMARK    8  A    between atoms: N_23  and  C_24 
ROOT
HETATM    1  C   UNL     1      -1.546  12.469  25.890  0.00  0.00     0.108 A 
HETATM    2  C   UNL     1      -0.556  12.624  24.909  0.00  0.00     0.046 A 
HETATM    3  C   UNL     1       0.071  13.856  24.701  0.00  0.00     0.047 A 
HETATM    4  C   UNL     1      -0.206  14.901  25.592  0.00  0.00     0.082 A 
HETATM    5  C   UNL     1      -1.157  14.742  26.601  0.00  0.00     0.075 A 
HETATM    6  C   UNL     1      -1.846  13.533  26.737  0.00  0.00     0.091 A 
ENDROOT
BRANCH   3   7
HETATM    7  C   UNL     1       1.057  14.033  23.611  0.00  0.00     0.172 A 
HETATM    8  N   UNL     1       2.342  13.898  23.827  0.00  0.00    -0.151 NA
HETATM    9  N   UNL     1       2.900  13.988  22.583  0.00  0.00    -0.226 N 
HETATM   10  H   UNL     1       3.892  13.903  22.408  0.00  0.00     0.194 HD
HETATM   11  C   UNL     1       1.924  14.180  21.608  0.00  0.00     0.349 A 
HETATM   12  O   UNL     1       2.137  14.287  20.416  0.00  0.00    -0.245 OA
HETATM   13  N   UNL     1       0.733  14.243  22.297  0.00  0.00    -0.241 N 
BRANCH  13  14
HETATM   14  C   UNL     1      -0.473  14.650  21.696  0.00  0.00     0.084 A 
HETATM   15  C   UNL     1      -1.392  13.727  21.182  0.00  0.00     0.143 A 
HETATM   16  F   UNL     1      -1.163  12.409  21.295  0.00  0.00    -0.204 F 
HETATM   17  C   UNL     1      -2.575  14.152  20.579  0.00  0.00     0.044 A 
HETATM   18  C   UNL     1      -2.832  15.518  20.453  0.00  0.00     0.003 A 
HETATM   19  C   UNL     1      -1.917  16.448  20.946  0.00  0.00     0.002 A 
HETATM   20  C   UNL     1      -0.754  16.016  21.589  0.00  0.00     0.033 A 
ENDBRANCH  13  14
ENDBRANCH   3   7
BRANCH   4  21
HETATM   21  O   UNL     1       0.431  16.112  25.552  0.00  0.00    -0.360 OA
HETATM   22  H   UNL     1       1.234  16.023  24.994  0.00  0.00     0.217 HD
ENDBRANCH   4  21
BRANCH   1  23
HETATM   23  S   UNL     1      -2.530  10.988  25.792  0.00  0.00     0.246 S 
HETATM   24  O   UNL     1      -2.453  10.357  27.098  0.00  0.00    -0.206 OA
HETATM   25  O   UNL     1      -2.166  10.228  24.619  0.00  0.00    -0.206 OA
BRANCH  23  26
HETATM   26  N   UNL     1      -4.166  11.523  25.602  0.00  0.00    -0.210 NA
HETATM   27  C   UNL     1      -5.060  10.753  26.514  0.00  0.00     0.129 C 
BRANCH  26  28
HETATM   28  C   UNL     1      -4.632  11.503  24.180  0.00  0.00     0.106 C 
BRANCH  28  29
HETATM   29  C   UNL     1      -4.083  12.659  23.338  0.00  0.00     0.011 C 
HETATM   30  C   UNL     1      -4.187  14.011  24.026  0.00  0.00     0.006 C 
ENDBRANCH  28  29
ENDBRANCH  26  28
ENDBRANCH  23  26
ENDBRANCH   1  23
BRANCH   6  31
HETATM   31  O   UNL     1      -2.767  13.406  27.732  0.00  0.00    -0.359 OA
HETATM   32  H   UNL     1      -2.316  13.360  28.593  0.00  0.00     0.217 HD
ENDBRANCH   6  31
TORSDOF 8
ENDMDL
MODEL 3
REMARK VINA RESULT:    -7.471      3.455      6.431
REMARK INTER + INTRA:         -12.502
REMARK INTER:                  -9.602
REMARK INTRA:                  -2.900
REMARK UNBOUND:                -1.974
REMARK  8 active torsions:
REMARK  status: ('A' for Active; 'I' for Inactive)
REMARK    1  A    between atoms: C_2  and  C_3 
REMARK    2  A    between atoms: C_3  and  N_4 
REMARK    3  A    between atoms: N_4  and  S_6 
REMARK    4  A    between atoms: S_6  and  C_9 
REMARK    5  A    between atoms: C_11  and  C_17 
REMARK    6  A    between atoms: C_12  and  O_13 
REMARK    7  A    between atoms: C_15  and  O_16 
REMARK    8  A    between atoms: N_23  and  C_24 
ROOT
HETATM    1  C   UNL     1      -3.654  13.247  22.640  0.00  0.00     0.108 A 
HETATM    2  C   UNL     1      -2.756  12.178  22.781  0.00  0.00     0.046 A 
HETATM    3  C   UNL     1      -2.344  11.741  24.043  0.00  0.00     0.047 A 
HETATM    4  C   UNL     1      -2.958  12.298  25.172  0.00  0.00     0.082 A 
HETATM    5  C   UNL     1      -3.886  13.331  25.040  0.00  0.00     0.075 A 
HETATM    6  C   UNL     1      -4.219  13.823  23.774  0.00  0.00     0.091 A 
ENDROOT
BRANCH   3   7
HETATM    7  C   UNL     1      -1.336  10.665  24.182  0.00  0.00     0.172 A 
HETATM    8  N   UNL     1      -1.655   9.492  24.671  0.00  0.00    -0.151 NA
HETATM    9  N   UNL     1      -0.523   8.746  24.507  0.00  0.00    -0.226 N 
HETATM   10  H   UNL     1      -0.453   7.772  24.772  0.00  0.00     0.194 HD
HETATM   11  C   UNL     1       0.489   9.492  23.908  0.00  0.00     0.349 A 
HETATM   12  O   UNL     1       1.599   9.076  23.639  0.00  0.00    -0.245 OA
HETATM   13  N   UNL     1      -0.044  10.750  23.736  0.00  0.00    -0.241 N 
BRANCH  13  14
HETATM   14  C   UNL     1       0.735  11.862  23.364  0.00  0.00     0.084 A 
HETATM   15  C   UNL     1       0.770  12.332  22.045  0.00  0.00     0.143 A 
HETATM   16  F   UNL     1       0.012  11.754  21.100  0.00  0.00    -0.204 F 
HETATM   17  C   UNL     1       1.558  13.427  21.695  0.00  0.00     0.044 A 
HETATM   18  C   UNL     1       2.351  14.043  22.663  0.00  0.00     0.003 A 
HETATM   19  C   UNL     1       2.339  13.574  23.977  0.00  0.00     0.002 A 
HETATM   20  C   UNL     1       1.513  12.504  24.332  0.00  0.00     0.033 A 
ENDBRANCH  13  14
ENDBRANCH   3   7
BRANCH   4  21
HETATM   21  O   UNL     1      -2.714  11.869  26.449  0.00  0.00    -0.360 OA
HETATM   22  H   UNL     1      -2.214  11.024  26.404  0.00  0.00     0.217 HD
ENDBRANCH   4  21
BRANCH   1  23
HETATM   23  S   UNL     1      -3.791  13.954  21.010  0.00  0.00     0.246 S 
HETATM   24  O   UNL     1      -5.211  14.029  20.714  0.00  0.00    -0.206 OA
HETATM   25  O   UNL     1      -2.915  13.261  20.095  0.00  0.00    -0.206 OA
BRANCH  23  26
HETATM   26  N   UNL     1      -3.233  15.587  21.159  0.00  0.00    -0.210 NA
HETATM   27  C   UNL     1      -4.012  16.473  20.246  0.00  0.00     0.129 C 
BRANCH  26  28
HETATM   28  C   UNL     1      -1.754  15.723  20.978  0.00  0.00     0.106 C 
BRANCH  28  29
HETATM   29  C   UNL     1      -1.056  16.433  22.141  0.00  0.00     0.011 C 
HETATM   30  C   UNL     1      -1.010  15.604  23.416  0.00  0.00     0.006 C 
ENDBRANCH  28  29
ENDBRANCH  26  28
ENDBRANCH  23  26
ENDBRANCH   1  23
BRANCH   6  31
HETATM   31  O   UNL     1      -5.130  14.831  23.676  0.00  0.00    -0.359 OA
HETATM   32  H   UNL     1      -5.691  14.845  24.470  0.00  0.00     0.217 HD
ENDBRANCH   6  31
TORSDOF 8
ENDMDL
MODEL 4
REMARK VINA RESULT:    -7.318      3.015      4.631
REMARK INTER + INTRA:         -12.287
REMARK INTER:                 -10.437
REMARK INTRA:                  -1.850
REMARK UNBOUND:                -1.974
REMARK  8 active torsions:
REMARK  status: ('A' for Active; 'I' for Inactive)
REMARK    1  A    between atoms: C_2  and  C_3 
REMARK    2  A    between atoms: C_3  and  N_4 
REMARK    3  A    between atoms: N_4  and  S_6 
REMARK    4  A    between atoms: S_6  and  C_9 
REMARK    5  A    between atoms: C_11  and  C_17 
REMARK    6  A    between atoms: C_12  and  O_13 
REMARK    7  A    between atoms: C_15  and  O_16 
REMARK    8  A    between atoms: N_23  and  C_24 
ROOT
HETATM    1  C   UNL     1       0.058  14.297  25.119  0.00  0.00     0.108 A 
HETATM    2  C   UNL     1      -0.983  13.382  24.901  0.00  0.00     0.046 A 
HETATM    3  C   UNL     1      -1.995  13.199  25.847  0.00  0.00     0.047 A 
HETATM    4  C   UNL     1      -2.029  14.052  26.957  0.00  0.00     0.082 A 
HETATM    5  C   UNL     1      -1.022  14.997  27.160  0.00  0.00     0.075 A 
HETATM    6  C   UNL     1       0.037  15.104  26.252  0.00  0.00     0.091 A 
ENDROOT
BRANCH   3   7
HETATM    7  C   UNL     1      -3.046  12.176  25.646  0.00  0.00     0.172 A 
HETATM    8  N   UNL     1      -3.471  11.432  26.637  0.00  0.00    -0.151 NA
HETATM    9  N   UNL     1      -4.516  10.732  26.104  0.00  0.00    -0.226 N 
HETATM   10  H   UNL     1      -5.076  10.075  26.631  0.00  0.00     0.194 HD
HETATM   11  C   UNL     1      -4.715  11.068  24.767  0.00  0.00     0.349 A 
HETATM   12  O   UNL     1      -5.579  10.602  24.050  0.00  0.00    -0.245 OA
HETATM   13  N   UNL     1      -3.727  11.982  24.473  0.00  0.00    -0.241 N 
BRANCH  13  14
HETATM   14  C   UNL     1      -3.444  12.401  23.160  0.00  0.00     0.084 A 
HETATM   15  C   UNL     1      -2.592  11.675  22.319  0.00  0.00     0.143 A 
HETATM   16  F   UNL     1      -2.054  10.518  22.736  0.00  0.00    -0.204 F 
HETATM   17  C   UNL     1      -2.315  12.114  21.025  0.00  0.00     0.044 A 
HETATM   18  C   UNL     1      -2.866  13.313  20.572  0.00  0.00     0.003 A 
HETATM   19  C   UNL     1      -3.703  14.055  21.406  0.00  0.00     0.002 A 
HETATM   20  C   UNL     1      -4.013  13.588  22.686  0.00  0.00     0.033 A 
ENDBRANCH  13  14
ENDBRANCH   3   7
BRANCH   4  21
HETATM   21  O   UNL     1      -3.034  14.037  27.886  0.00  0.00    -0.360 OA
HETATM   22  H   UNL     1      -3.895  14.008  27.414  0.00  0.00     0.217 HD
ENDBRANCH   4  21
BRANCH   1  23
HETATM   23  S   UNL     1       1.473  14.155  24.045  0.00  0.00     0.246 S 
HETATM   24  O   UNL     1       1.341  12.882  23.359  0.00  0.00    -0.206 OA
HETATM   25  O   UNL     1       2.683  14.438  24.780  0.00  0.00    -0.206 OA
BRANCH  23  26
HETATM   26  N   UNL     1       1.273  15.384  22.841  0.00  0.00    -0.210 NA
HETATM   27  C   UNL     1       0.386  14.886  21.751  0.00  0.00     0.129 C 
BRANCH  26  28
HETATM   28  C   UNL     1       2.571  15.926  22.331  0.00  0.00     0.106 C 
BRANCH  28  29
HETATM   29  C   UNL     1       3.251  15.022  21.298  0.00  0.00     0.011 C 
HETATM   30  C   UNL     1       4.616  14.518  21.742  0.00  0.00     0.006 C 
ENDBRANCH  28  29
ENDBRANCH  26  28
ENDBRANCH  23  26
ENDBRANCH   1  23
BRANCH   6  31
HETATM   31  O   UNL     1       1.004  16.037  26.475  0.00  0.00    -0.359 OA
HETATM   32  H   UNL     1       0.698  16.676  27.141  0.00  0.00     0.217 HD
ENDBRANCH   6  31
TORSDOF 8
ENDMDL
MODEL 5
REMARK VINA RESULT:    -7.295      3.068      4.865
REMARK INTER + INTRA:         -12.254
REMARK INTER:                 -10.531
REMARK INTRA:                  -1.723
REMARK UNBOUND:                -1.974
REMARK  8 active torsions:
REMARK  status: ('A' for Active; 'I' for Inactive)
REMARK    1  A    between atoms: C_2  and  C_3 
REMARK    2  A    between atoms: C_3  and  N_4 
REMARK    3  A    between atoms: N_4  and  S_6 
REMARK    4  A    between atoms: S_6  and  C_9 
REMARK    5  A    between atoms: C_11  and  C_17 
REMARK    6  A    between atoms: C_12  and  O_13 
REMARK    7  A    between atoms: C_15  and  O_16 
REMARK    8  A    between atoms: N_23  and  C_24 
ROOT
HETATM    1  C   UNL     1      -0.217  14.398  23.201  0.00  0.00     0.108 A 
HETATM    2  C   UNL     1      -1.045  13.758  24.135  0.00  0.00     0.046 A 
HETATM    3  C   UNL     1      -2.341  13.358  23.799  0.00  0.00     0.047 A 
HETATM    4  C   UNL     1      -2.749  13.481  22.465  0.00  0.00     0.082 A 
HETATM    5  C   UNL     1      -1.916  14.076  21.518  0.00  0.00     0.075 A 
HETATM    6  C   UNL     1      -0.656  14.557  21.890  0.00  0.00     0.091 A 
ENDROOT
BRANCH   3   7
HETATM    7  C   UNL     1      -3.237  12.755  24.812  0.00  0.00     0.172 A 
HETATM    8  N   UNL     1      -4.350  13.343  25.175  0.00  0.00    -0.151 NA
HETATM    9  N   UNL     1      -4.955  12.433  25.994  0.00  0.00    -0.226 N 
HETATM   10  H   UNL     1      -5.856  12.584  26.427  0.00  0.00     0.194 HD
HETATM   11  C   UNL     1      -4.185  11.280  26.120  0.00  0.00     0.349 A 
HETATM   12  O   UNL     1      -4.486  10.306  26.783  0.00  0.00    -0.245 OA
HETATM   13  N   UNL     1      -3.052  11.519  25.374  0.00  0.00    -0.241 N 
BRANCH  13  14
HETATM   14  C   UNL     1      -1.919  10.685  25.422  0.00  0.00     0.084 A 
HETATM   15  C   UNL     1      -1.457   9.999  24.291  0.00  0.00     0.143 A 
HETATM   16  F   UNL     1      -2.066  10.161  23.106  0.00  0.00    -0.204 F 
HETATM   17  C   UNL     1      -0.340   9.168  24.363  0.00  0.00     0.044 A 
HETATM   18  C   UNL     1       0.307   8.988  25.586  0.00  0.00     0.003 A 
HETATM   19  C   UNL     1      -0.154   9.652  26.723  0.00  0.00     0.002 A 
HETATM   20  C   UNL     1      -1.246  10.519  26.636  0.00  0.00     0.033 A 
ENDBRANCH  13  14
ENDBRANCH   3   7
BRANCH   4  21
HETATM   21  O   UNL     1      -3.953  13.021  22.002  0.00  0.00    -0.360 OA
HETATM   22  H   UNL     1      -4.651  13.660  22.261  0.00  0.00     0.217 HD
ENDBRANCH   4  21
BRANCH   1  23
HETATM   23  S   UNL     1       1.236  15.199  23.851  0.00  0.00     0.246 S 
HETATM   24  O   UNL     1       1.068  15.247  25.293  0.00  0.00    -0.206 OA
HETATM   25  O   UNL     1       1.491  16.424  23.129  0.00  0.00    -0.206 OA
BRANCH  23  26
HETATM   26  N   UNL     1       2.548  14.110  23.546  0.00  0.00    -0.210 NA
HETATM   27  C   UNL     1       2.759  13.228  24.730  0.00  0.00     0.129 C 
BRANCH  26  28
HETATM   28  C   UNL     1       3.799  14.803  23.107  0.00  0.00     0.106 C 
BRANCH  28  29
HETATM   29  C   UNL     1       4.242  14.432  21.689  0.00  0.00     0.011 C 
HETATM   30  C   UNL     1       5.685  14.809  21.388  0.00  0.00     0.006 C 
ENDBRANCH  28  29
ENDBRANCH  26  28
ENDBRANCH  23  26
ENDBRANCH   1  23
BRANCH   6  31
HETATM   31  O   UNL     1       0.137  15.132  20.944  0.00  0.00    -0.359 OA
HETATM   32  H   UNL     1       1.072  15.036  21.196  0.00  0.00     0.217 HD
ENDBRANCH   6  31
TORSDOF 8
ENDMDL
MODEL 6
REMARK VINA RESULT:    -7.279      2.417      3.190
REMARK INTER + INTRA:         -12.232
REMARK INTER:                 -10.132
REMARK INTRA:                  -2.100
REMARK UNBOUND:                -1.974
REMARK  8 active torsions:
REMARK  status: ('A' for Active; 'I' for Inactive)
REMARK    1  A    between atoms: C_2  and  C_3 
REMARK    2  A    between atoms: C_3  and  N_4 
REMARK    3  A    between atoms: N_4  and  S_6 
REMARK    4  A    between atoms: S_6  and  C_9 
REMARK    5  A    between atoms: C_11  and  C_17 
REMARK    6  A    between atoms: C_12  and  O_13 
REMARK    7  A    between atoms: C_15  and  O_16 
REMARK    8  A    between atoms: N_23  and  C_24 
ROOT
HETATM    1  C   UNL     1       1.697  13.583  22.442  0.00  0.00     0.108 A 
HETATM    2  C   UNL     1       0.591  12.885  22.948  0.00  0.00     0.046 A 
HETATM    3  C   UNL     1      -0.269  12.179  22.102  0.00  0.00     0.047 A 
HETATM    4  C   UNL     1       0.077  12.063  20.750  0.00  0.00     0.082 A 
HETATM    5  C   UNL     1       1.202  12.718  20.245  0.00  0.00     0.075 A 
HETATM    6  C   UNL     1       2.001  13.498  21.087  0.00  0.00     0.091 A 
ENDROOT
BRANCH   3   7
HETATM    7  C   UNL     1      -1.479  11.511  22.633  0.00  0.00     0.172 A 
HETATM    8  N   UNL     1      -1.408  10.343  23.223  0.00  0.00    -0.151 NA
HETATM    9  N   UNL     1      -2.673  10.131  23.693  0.00  0.00    -0.226 N 
HETATM   10  H   UNL     1      -2.943   9.312  24.220  0.00  0.00     0.194 HD
HETATM   11  C   UNL     1      -3.512  11.197  23.376  0.00  0.00     0.349 A 
HETATM   12  O   UNL     1      -4.687  11.275  23.676  0.00  0.00    -0.245 OA
HETATM   13  N   UNL     1      -2.729  12.070  22.654  0.00  0.00    -0.241 N 
BRANCH  13  14
HETATM   14  C   UNL     1      -3.261  13.171  21.957  0.00  0.00     0.084 A 
HETATM   15  C   UNL     1      -3.696  14.326  22.620  0.00  0.00     0.143 A 
HETATM   16  F   UNL     1      -3.570  14.430  23.952  0.00  0.00    -0.204 F 
HETATM   17  C   UNL     1      -4.232  15.400  21.912  0.00  0.00     0.044 A 
HETATM   18  C   UNL     1      -4.371  15.312  20.526  0.00  0.00     0.003 A 
HETATM   19  C   UNL     1      -3.957  14.161  19.856  0.00  0.00     0.002 A 
HETATM   20  C   UNL     1      -3.379  13.105  20.565  0.00  0.00     0.033 A 
ENDBRANCH  13  14
ENDBRANCH   3   7
BRANCH   4  21
HETATM   21  O   UNL     1      -0.629  11.306  19.855  0.00  0.00    -0.360 OA
HETATM   22  H   UNL     1      -0.187  11.365  18.980  0.00  0.00     0.217 HD
ENDBRANCH   4  21
BRANCH   1  23
HETATM   23  S   UNL     1       2.471  14.746  23.548  0.00  0.00     0.246 S 
HETATM   24  O   UNL     1       3.672  15.212  22.879  0.00  0.00    -0.206 OA
HETATM   25  O   UNL     1       2.577  14.175  24.871  0.00  0.00    -0.206 OA
BRANCH  23  26
HETATM   26  N   UNL     1       1.397  16.102  23.631  0.00  0.00    -0.210 NA
HETATM   27  C   UNL     1       0.262  15.794  24.547  0.00  0.00     0.129 C 
BRANCH  26  28
HETATM   28  C   UNL     1       0.945  16.579  22.287  0.00  0.00     0.106 C 
BRANCH  28  29
HETATM   29  C   UNL     1      -0.567  16.464  22.070  0.00  0.00     0.011 C 
HETATM   30  C   UNL     1      -0.973  16.500  20.605  0.00  0.00     0.006 C 
ENDBRANCH  28  29
ENDBRANCH  26  28
ENDBRANCH  23  26
ENDBRANCH   1  23
BRANCH   6  31
HETATM   31  O   UNL     1       3.093  14.123  20.567  0.00  0.00    -0.359 OA
HETATM   32  H   UNL     1       2.979  14.242  19.608  0.00  0.00     0.217 HD
ENDBRANCH   6  31
TORSDOF 8
ENDMDL
MODEL 7
REMARK VINA RESULT:    -7.230      3.160      6.595
REMARK INTER + INTRA:         -12.163
REMARK INTER:                 -10.066
REMARK INTRA:                  -2.097
REMARK UNBOUND:                -1.974
REMARK  8 active torsions:
REMARK  status: ('A' for Active; 'I' for Inactive)
REMARK    1  A    between atoms: C_2  and  C_3 
REMARK    2  A    between atoms: C_3  and  N_4 
REMARK    3  A    between atoms: N_4  and  S_6 
REMARK    4  A    between atoms: S_6  and  C_9 
REMARK    5  A    between atoms: C_11  and  C_17 
REMARK    6  A    between atoms: C_12  and  O_13 
REMARK    7  A    between atoms: C_15  and  O_16 
REMARK    8  A    between atoms: N_23  and  C_24 
ROOT
HETATM    1  C   UNL     1      -2.073  13.269  25.661  0.00  0.00     0.108 A 
HETATM    2  C   UNL     1      -1.082  13.342  24.672  0.00  0.00     0.046 A 
HETATM    3  C   UNL     1      -0.063  14.297  24.738  0.00  0.00     0.047 A 
HETATM    4  C   UNL     1       0.032  15.088  25.889  0.00  0.00     0.082 A 
HETATM    5  C   UNL     1      -0.924  14.990  26.901  0.00  0.00     0.075 A 
HETATM    6  C   UNL     1      -1.992  14.096  26.777  0.00  0.00     0.091 A 
ENDROOT
BRANCH   3   7
HETATM    7  C   UNL     1       0.934  14.420  23.650  0.00  0.00     0.172 A 
HETATM    8  N   UNL     1       2.219  14.336  23.890  0.00  0.00    -0.151 NA
HETATM    9  N   UNL     1       2.791  14.351  22.650  0.00  0.00    -0.226 N 
HETATM   10  H   UNL     1       3.788  14.279  22.494  0.00  0.00     0.194 HD
HETATM   11  C   UNL     1       1.824  14.446  21.652  0.00  0.00     0.349 A 
HETATM   12  O   UNL     1       2.052  14.473  20.458  0.00  0.00    -0.245 OA
HETATM   13  N   UNL     1       0.622  14.527  22.320  0.00  0.00    -0.241 N 
BRANCH  13  14
HETATM   14  C   UNL     1      -0.584  14.858  21.677  0.00  0.00     0.084 A 
HETATM   15  C   UNL     1      -1.483  13.877  21.239  0.00  0.00     0.143 A 
HETATM   16  F   UNL     1      -1.232  12.579  21.470  0.00  0.00    -0.204 F 
HETATM   17  C   UNL     1      -2.667  14.226  20.593  0.00  0.00     0.044 A 
HETATM   18  C   UNL     1      -2.947  15.570  20.345  0.00  0.00     0.003 A 
HETATM   19  C   UNL     1      -2.052  16.557  20.760  0.00  0.00     0.002 A 
HETATM   20  C   UNL     1      -0.888  16.204  21.448  0.00  0.00     0.033 A 
ENDBRANCH  13  14
ENDBRANCH   3   7
BRANCH   4  21
HETATM   21  O   UNL     1       1.052  15.975  26.110  0.00  0.00    -0.360 OA
HETATM   22  H   UNL     1       1.858  15.641  25.659  0.00  0.00     0.217 HD
ENDBRANCH   4  21
BRANCH   1  23
HETATM   23  S   UNL     1      -3.512  12.293  25.267  0.00  0.00     0.246 S 
HETATM   24  O   UNL     1      -3.830  12.574  23.878  0.00  0.00    -0.206 OA
HETATM   25  O   UNL     1      -4.528  12.482  26.275  0.00  0.00    -0.206 OA
BRANCH  23  26
HETATM   26  N   UNL     1      -2.991  10.643  25.328  0.00  0.00    -0.210 NA
HETATM   27  C   UNL     1      -2.234  10.396  26.589  0.00  0.00     0.129 C 
BRANCH  26  28
HETATM   28  C   UNL     1      -2.238  10.217  24.107  0.00  0.00     0.106 C 
BRANCH  28  29
HETATM   29  C   UNL     1      -0.869   9.601  24.412  0.00  0.00     0.011 C 
HETATM   30  C   UNL     1       0.242  10.121  23.513  0.00  0.00     0.006 C 
ENDBRANCH  28  29
ENDBRANCH  26  28
ENDBRANCH  23  26
ENDBRANCH   1  23
BRANCH   6  31
HETATM   31  O   UNL     1      -2.910  14.021  27.781  0.00  0.00    -0.359 OA
HETATM   32  H   UNL     1      -2.497  13.641  28.576  0.00  0.00     0.217 HD
ENDBRANCH   6  31
TORSDOF 8
ENDMDL
MODEL 8
REMARK VINA RESULT:    -7.111      4.561      6.660
REMARK INTER + INTRA:         -11.994
REMARK INTER:                  -9.971
REMARK INTRA:                  -2.023
REMARK UNBOUND:                -1.974
REMARK  8 active torsions:
REMARK  status: ('A' for Active; 'I' for Inactive)
REMARK    1  A    between atoms: C_2  and  C_3 
REMARK    2  A    between atoms: C_3  and  N_4 
REMARK    3  A    between atoms: N_4  and  S_6 
REMARK    4  A    between atoms: S_6  and  C_9 
REMARK    5  A    between atoms: C_11  and  C_17 
REMARK    6  A    between atoms: C_12  and  O_13 
REMARK    7  A    between atoms: C_15  and  O_16 
REMARK    8  A    between atoms: N_23  and  C_24 
ROOT
HETATM    1  C   UNL     1      -0.965   9.465  25.994  0.00  0.00     0.108 A 
HETATM    2  C   UNL     1      -1.569  10.280  25.026  0.00  0.00     0.046 A 
HETATM    3  C   UNL     1      -2.591  11.171  25.365  0.00  0.00     0.047 A 
HETATM    4  C   UNL     1      -2.902  11.340  26.720  0.00  0.00     0.082 A 
HETATM    5  C   UNL     1      -2.274  10.565  27.696  0.00  0.00     0.075 A 
HETATM    6  C   UNL     1      -1.320   9.609  27.332  0.00  0.00     0.091 A 
ENDROOT
BRANCH   3   7
HETATM    7  C   UNL     1      -3.278  11.970  24.325  0.00  0.00     0.172 A 
HETATM    8  N   UNL     1      -4.355  11.526  23.726  0.00  0.00    -0.151 NA
HETATM    9  N   UNL     1      -4.768  12.579  22.960  0.00  0.00    -0.226 N 
HETATM   10  H   UNL     1      -5.598  12.559  22.383  0.00  0.00     0.194 HD
HETATM   11  C   UNL     1      -3.918  13.672  23.110  0.00  0.00     0.349 A 
HETATM   12  O   UNL     1      -4.052  14.744  22.552  0.00  0.00    -0.245 OA
HETATM   13  N   UNL     1      -2.933  13.248  23.974  0.00  0.00    -0.241 N 
BRANCH  13  14
HETATM   14  C   UNL     1      -1.758  13.986  24.209  0.00  0.00     0.084 A 
HETATM   15  C   UNL     1      -0.686  13.976  23.307  0.00  0.00     0.143 A 
HETATM   16  F   UNL     1      -0.774  13.289  22.158  0.00  0.00    -0.204 F 
HETATM   17  C   UNL     1       0.475  14.705  23.565  0.00  0.00     0.044 A 
HETATM   18  C   UNL     1       0.586  15.426  24.754  0.00  0.00     0.003 A 
HETATM   19  C   UNL     1      -0.469  15.431  25.668  0.00  0.00     0.002 A 
HETATM   20  C   UNL     1      -1.646  14.735  25.384  0.00  0.00     0.033 A 
ENDBRANCH  13  14
ENDBRANCH   3   7
BRANCH   4  21
HETATM   21  O   UNL     1      -3.805  12.263  27.175  0.00  0.00    -0.360 OA
HETATM   22  H   UNL     1      -3.792  12.253  28.157  0.00  0.00     0.217 HD
ENDBRANCH   4  21
BRANCH   1  23
HETATM   23  S   UNL     1       0.027   8.116  25.384  0.00  0.00     0.246 S 
HETATM   24  O   UNL     1       0.163   8.320  23.953  0.00  0.00    -0.206 OA
HETATM   25  O   UNL     1      -0.495   6.860  25.871  0.00  0.00    -0.206 OA
BRANCH  23  26
HETATM   26  N   UNL     1       1.602   8.346  26.065  0.00  0.00    -0.210 NA
HETATM   27  C   UNL     1       2.104   9.710  25.732  0.00  0.00     0.129 C 
BRANCH  26  28
HETATM   28  C   UNL     1       2.569   7.265  25.694  0.00  0.00     0.106 C 
BRANCH  28  29
HETATM   29  C   UNL     1       3.669   7.727  24.734  0.00  0.00     0.011 C 
HETATM   30  C   UNL     1       3.482   7.220  23.312  0.00  0.00     0.006 C 
ENDBRANCH  28  29
ENDBRANCH  26  28
ENDBRANCH  23  26
ENDBRANCH   1  23
BRANCH   6  31
HETATM   31  O   UNL     1      -0.721   8.870  28.306  0.00  0.00    -0.359 OA
HETATM   32  H   UNL     1      -0.871   9.285  29.173  0.00  0.00     0.217 HD
ENDBRANCH   6  31
TORSDOF 8
ENDMDL
MODEL 9
REMARK VINA RESULT:    -7.089      4.508      6.940
REMARK INTER + INTRA:         -11.963
REMARK INTER:                  -9.990
REMARK INTRA:                  -1.974
REMARK UNBOUND:                -1.974
REMARK  8 active torsions:
REMARK  status: ('A' for Active; 'I' for Inactive)
REMARK    1  A    between atoms: C_2  and  C_3 
REMARK    2  A    between atoms: C_3  and  N_4 
REMARK    3  A    between atoms: N_4  and  S_6 
REMARK    4  A    between atoms: S_6  and  C_9 
REMARK    5  A    between atoms: C_11  and  C_17 
REMARK    6  A    between atoms: C_12  and  O_13 
REMARK    7  A    between atoms: C_15  and  O_16 
REMARK    8  A    between atoms: N_23  and  C_24 
ROOT
HETATM    1  C   UNL     1      -1.224   9.987  26.624  0.00  0.00     0.108 A 
HETATM    2  C   UNL     1      -1.260  10.391  25.281  0.00  0.00     0.046 A 
HETATM    3  C   UNL     1      -2.246  11.265  24.814  0.00  0.00     0.047 A 
HETATM    4  C   UNL     1      -3.115  11.845  25.747  0.00  0.00     0.082 A 
HETATM    5  C   UNL     1      -3.058  11.484  27.093  0.00  0.00     0.075 A 
HETATM    6  C   UNL     1      -2.127  10.536  27.530  0.00  0.00     0.091 A 
ENDROOT
BRANCH   3   7
HETATM    7  C   UNL     1      -2.325  11.624  23.380  0.00  0.00     0.172 A 
HETATM    8  N   UNL     1      -3.112  10.975  22.558  0.00  0.00    -0.151 NA
HETATM    9  N   UNL     1      -3.021  11.675  21.389  0.00  0.00    -0.226 N 
HETATM   10  H   UNL     1      -3.535  11.434  20.551  0.00  0.00     0.194 HD
HETATM   11  C   UNL     1      -2.161  12.763  21.520  0.00  0.00     0.349 A 
HETATM   12  O   UNL     1      -1.901  13.559  20.639  0.00  0.00    -0.245 OA
HETATM   13  N   UNL     1      -1.688  12.695  22.812  0.00  0.00    -0.241 N 
BRANCH  13  14
HETATM   14  C   UNL     1      -0.621  13.488  23.274  0.00  0.00     0.084 A 
HETATM   15  C   UNL     1      -0.835  14.657  24.016  0.00  0.00     0.143 A 
HETATM   16  F   UNL     1      -2.081  15.028  24.349  0.00  0.00    -0.204 F 
HETATM   17  C   UNL     1       0.236  15.435  24.453  0.00  0.00     0.044 A 
HETATM   18  C   UNL     1       1.539  15.065  24.118  0.00  0.00     0.003 A 
HETATM   19  C   UNL     1       1.764  13.912  23.365  0.00  0.00     0.002 A 
HETATM   20  C   UNL     1       0.690  13.112  22.967  0.00  0.00     0.033 A 
ENDBRANCH  13  14
ENDBRANCH   3   7
BRANCH   4  21
HETATM   21  O   UNL     1      -4.044  12.796  25.419  0.00  0.00    -0.360 OA
HETATM   22  H   UNL     1      -4.771  12.760  26.077  0.00  0.00     0.217 HD
ENDBRANCH   4  21
BRANCH   1  23
HETATM   23  S   UNL     1      -0.183   8.591  27.002  0.00  0.00     0.246 S 
HETATM   24  O   UNL     1      -1.030   7.617  27.667  0.00  0.00    -0.206 OA
HETATM   25  O   UNL     1       1.025   9.037  27.655  0.00  0.00    -0.206 OA
BRANCH  23  26
HETATM   26  N   UNL     1       0.252   7.903  25.474  0.00  0.00    -0.210 NA
HETATM   27  C   UNL     1      -0.222   6.491  25.401  0.00  0.00     0.129 C 
BRANCH  26  28
HETATM   28  C   UNL     1       1.708   8.044  25.156  0.00  0.00     0.106 C 
BRANCH  28  29
HETATM   29  C   UNL     1       2.019   7.984  23.658  0.00  0.00     0.011 C 
HETATM   30  C   UNL     1       3.336   7.293  23.341  0.00  0.00     0.006 C 
ENDBRANCH  28  29
ENDBRANCH  26  28
ENDBRANCH  23  26
ENDBRANCH   1  23
BRANCH   6  31
HETATM   31  O   UNL     1      -2.092  10.204  28.851  0.00  0.00    -0.359 OA
HETATM   32  H   UNL     1      -2.297  10.987  29.392  0.00  0.00     0.217 HD
ENDBRANCH   6  31
TORSDOF 8
ENDMDL
