MODEL 1
REMARK minimizedAffinity -6.35764647
REMARK minimizedRMSD -1
REMARK  7 active torsions:
REMARK  status: ('A' for Active; 'I' for Inactive)
REMARK    1  A    between atoms: C_7  and  N_8 
REMARK    2  A    between atoms: C_14  and  C_15 
REMARK    3  A    between atoms: C_16  and  O_17 
REMARK    4  A    between atoms: C_19  and  O_20 
REMARK    5  A    between atoms: C_22  and  C_23 
REMARK       I    between atoms: C_23  and  N_25 
REMARK    6  A    between atoms: N_25  and  C_27 
REMARK    7  A    between atoms: C_27  and  C_28 
ROOT
HETATM    1  C   UNL     1       2.357   8.402  24.515  0.00  0.00     0.046 A 
HETATM    2  C   UNL     1       2.400   8.039  25.884  0.00  0.00     0.082 A 
HETATM    3  C   UNL     1       2.445   6.710  26.295  0.00  0.00     0.075 A 
HETATM    4  C   UNL     1       2.470   5.695  25.345  0.00  0.00     0.084 A 
HETATM    5  C   UNL     1       2.359   7.356  23.575  0.00  0.00     0.038 A 
HETATM    6  C   UNL     1       2.435   5.998  23.972  0.00  0.00     0.066 A 
ENDROOT
BRANCH   1   7
HETATM    7  C   UNL     1       2.541   9.861  24.203  0.00  0.00     0.172 A 
HETATM    8  N   UNL     1       1.687  10.922  24.394  0.00  0.00    -0.241 N 
HETATM    9  C   UNL     1       2.415  12.046  24.032  0.00  0.00     0.349 A 
HETATM   10  O   UNL     1       2.058  13.212  23.926  0.00  0.00    -0.245 OA
HETATM   11  N   UNL     1       3.668  11.586  23.685  0.00  0.00    -0.226 N 
HETATM   12  H   UNL     1       4.412  12.155  23.298  0.00  0.00     0.194 HD
HETATM   13  N   UNL     1       3.727  10.240  23.777  0.00  0.00    -0.151 NA
BRANCH   8  14
HETATM   14  C   UNL     1       0.335  11.049  24.753  0.00  0.00     0.084 A 
HETATM   15  C   UNL     1      -0.606  11.459  23.792  0.00  0.00     0.143 A 
HETATM   16  F   UNL     1      -0.199  11.933  22.605  0.00  0.00    -0.204 F 
HETATM   17  C   UNL     1      -1.977  11.401  24.035  0.00  0.00     0.044 A 
HETATM   18  C   UNL     1      -2.437  10.967  25.275  0.00  0.00     0.003 A 
HETATM   19  C   UNL     1      -1.522  10.561  26.244  0.00  0.00     0.002 A 
HETATM   20  C   UNL     1      -0.149  10.560  25.965  0.00  0.00     0.033 A 
ENDBRANCH   8  14
ENDBRANCH   1   7
BRANCH   2  21
HETATM   21  O   UNL     1       2.442   8.948  26.915  0.00  0.00    -0.360 OA
HETATM   22  H   UNL     1       2.705   9.821  26.550  0.00  0.00     0.217 HD
ENDBRANCH   2  21
BRANCH   6  23
HETATM   23  C   UNL     1       2.885   4.951  22.999  0.00  0.00     0.256 C 
HETATM   24  O   UNL     1       1.987   4.418  22.341  0.00  0.00    -0.267 OA
HETATM   25  N   UNL     1       4.208   4.503  22.894  0.00  0.00    -0.346 N 
HETATM   26  C   UNL     1       4.453   3.364  22.008  0.00  0.00     0.153 C 
BRANCH  25  27
HETATM   27  C   UNL     1       5.406   5.153  23.423  0.00  0.00     0.190 C 
BRANCH  27  28
HETATM   28  C   UNL     1       5.968   4.358  24.548  0.00  0.00     0.070 A 
HETATM   29  O   UNL     1       5.094   3.974  25.527  0.00  0.00    -0.325 OA
HETATM   30  C   UNL     1       5.819   3.312  26.467  0.00  0.00     0.142 A 
HETATM   31  C   UNL     1       7.145   3.263  26.108  0.00  0.00     0.027 A 
HETATM   32  C   UNL     1       7.239   3.916  24.856  0.00  0.00     0.036 A 
ENDBRANCH  27  28
ENDBRANCH  25  27
ENDBRANCH   6  23
BRANCH   4  33
HETATM   33  O   UNL     1       2.561   4.401  25.788  0.00  0.00    -0.360 OA
HETATM   34  H   UNL     1       3.104   4.389  26.597  0.00  0.00     0.217 HD
ENDBRANCH   4  33
TORSDOF 7
ENDMDL
MODEL 2
REMARK minimizedAffinity -6.30058146
REMARK minimizedRMSD -1
REMARK  7 active torsions:
REMARK  status: ('A' for Active; 'I' for Inactive)
REMARK    1  A    between atoms: C_7  and  N_8 
REMARK    2  A    between atoms: C_14  and  C_15 
REMARK    3  A    between atoms: C_16  and  O_17 
REMARK    4  A    between atoms: C_19  and  O_20 
REMARK    5  A    between atoms: C_22  and  C_23 
REMARK       I    between atoms: C_23  and  N_25 
REMARK    6  A    between atoms: N_25  and  C_27 
REMARK    7  A    between atoms: C_27  and  C_28 
ROOT
HETATM    1  C   UNL     1       2.334   6.230  29.615  0.00  0.00     0.046 A 
HETATM    2  C   UNL     1       1.858   5.630  30.806  0.00  0.00     0.082 A 
HETATM    3  C   UNL     1       2.686   4.884  31.641  0.00  0.00     0.075 A 
HETATM    4  C   UNL     1       4.030   4.731  31.320  0.00  0.00     0.084 A 
HETATM    5  C   UNL     1       3.692   6.040  29.301  0.00  0.00     0.038 A 
HETATM    6  C   UNL     1       4.558   5.310  30.152  0.00  0.00     0.066 A 
ENDROOT
BRANCH   1   7
HETATM    7  C   UNL     1       1.403   7.191  28.929  0.00  0.00     0.172 A 
HETATM    8  N   UNL     1       1.157   7.382  27.590  0.00  0.00    -0.241 N 
HETATM    9  C   UNL     1       0.129   8.311  27.537  0.00  0.00     0.349 A 
HETATM   10  O   UNL     1      -0.366   8.882  26.572  0.00  0.00    -0.245 OA
HETATM   11  N   UNL     1      -0.197   8.586  28.849  0.00  0.00    -0.226 N 
HETATM   12  H   UNL     1      -0.862   9.288  29.150  0.00  0.00     0.194 HD
HETATM   13  N   UNL     1       0.605   7.905  29.695  0.00  0.00    -0.151 NA
BRANCH   8  14
HETATM   14  C   UNL     1       1.756   6.933  26.401  0.00  0.00     0.084 A 
HETATM   15  C   UNL     1       1.057   6.052  25.558  0.00  0.00     0.143 A 
HETATM   16  F   UNL     1      -0.078   5.472  25.976  0.00  0.00    -0.204 F 
HETATM   17  C   UNL     1       1.514   5.743  24.278  0.00  0.00     0.044 A 
HETATM   18  C   UNL     1       2.717   6.282  23.829  0.00  0.00     0.003 A 
HETATM   19  C   UNL     1       3.428   7.153  24.651  0.00  0.00     0.002 A 
HETATM   20  C   UNL     1       2.926   7.510  25.908  0.00  0.00     0.033 A 
ENDBRANCH   8  14
ENDBRANCH   1   7
BRANCH   2  21
HETATM   21  O   UNL     1       0.568   5.758  31.264  0.00  0.00    -0.360 OA
HETATM   22  H   UNL     1       0.147   6.516  30.802  0.00  0.00     0.217 HD
ENDBRANCH   2  21
BRANCH   6  23
HETATM   23  C   UNL     1       6.043   5.493  30.055  0.00  0.00     0.256 C 
HETATM   24  O   UNL     1       6.494   6.484  30.636  0.00  0.00    -0.267 OA
HETATM   25  N   UNL     1       6.878   4.680  29.277  0.00  0.00    -0.346 N 
HETATM   26  C   UNL     1       8.279   5.088  29.163  0.00  0.00     0.153 C 
BRANCH  25  27
HETATM   27  C   UNL     1       6.560   3.370  28.713  0.00  0.00     0.190 C 
BRANCH  27  28
HETATM   28  C   UNL     1       6.025   3.520  27.333  0.00  0.00     0.070 A 
HETATM   29  O   UNL     1       6.943   3.685  26.333  0.00  0.00    -0.325 OA
HETATM   30  C   UNL     1       6.245   3.851  25.179  0.00  0.00     0.142 A 
HETATM   31  C   UNL     1       4.893   3.794  25.420  0.00  0.00     0.027 A 
HETATM   32  C   UNL     1       4.750   3.554  26.806  0.00  0.00     0.036 A 
ENDBRANCH  27  28
ENDBRANCH  25  27
ENDBRANCH   6  23
BRANCH   4  33
HETATM   33  O   UNL     1       4.823   4.029  32.189  0.00  0.00    -0.360 OA
HETATM   34  H   UNL     1       4.505   4.191  33.096  0.00  0.00     0.217 HD
ENDBRANCH   4  33
TORSDOF 7
ENDMDL
MODEL 3
REMARK minimizedAffinity -6.23318195
REMARK minimizedRMSD -1
REMARK  7 active torsions:
REMARK  status: ('A' for Active; 'I' for Inactive)
REMARK    1  A    between atoms: C_7  and  N_8 
REMARK    2  A    between atoms: C_14  and  C_15 
REMARK    3  A    between atoms: C_16  and  O_17 
REMARK    4  A    between atoms: C_19  and  O_20 
REMARK    5  A    between atoms: C_22  and  C_23 
REMARK       I    between atoms: C_23  and  N_25 
REMARK    6  A    between atoms: N_25  and  C_27 
REMARK    7  A    between atoms: C_27  and  C_28 
ROOT
HETATM    1  C   UNL     1       2.048   7.207  24.670  0.00  0.00     0.046 A 
HETATM    2  C   UNL     1       1.286   6.720  23.580  0.00  0.00     0.082 A 
HETATM    3  C   UNL     1       1.830   5.872  22.618  0.00  0.00     0.075 A 
HETATM    4  C   UNL     1       3.155   5.464  22.729  0.00  0.00     0.084 A 
HETATM    5  C   UNL     1       3.392   6.797  24.746  0.00  0.00     0.038 A 
HETATM    6  C   UNL     1       3.955   5.911  23.796  0.00  0.00     0.066 A 
ENDROOT
BRANCH   1   7
HETATM    7  C   UNL     1       1.287   7.922  25.752  0.00  0.00     0.172 A 
HETATM    8  N   UNL     1       0.705   9.168  25.748  0.00  0.00    -0.241 N 
HETATM    9  C   UNL     1       0.045   9.266  26.964  0.00  0.00     0.349 A 
HETATM   10  O   UNL     1      -0.528  10.221  27.472  0.00  0.00    -0.245 OA
HETATM   11  N   UNL     1       0.246   8.057  27.598  0.00  0.00    -0.226 N 
HETATM   12  H   UNL     1      -0.044   7.840  28.544  0.00  0.00     0.194 HD
HETATM   13  N   UNL     1       1.026   7.247  26.851  0.00  0.00    -0.151 NA
BRANCH   8  14
HETATM   14  C   UNL     1       0.735  10.271  24.878  0.00  0.00     0.084 A 
HETATM   15  C   UNL     1      -0.468  10.803  24.384  0.00  0.00     0.143 A 
HETATM   16  F   UNL     1      -1.623  10.142  24.560  0.00  0.00    -0.204 F 
HETATM   17  C   UNL     1      -0.508  12.011  23.692  0.00  0.00     0.044 A 
HETATM   18  C   UNL     1       0.677  12.698  23.441  0.00  0.00     0.003 A 
HETATM   19  C   UNL     1       1.882  12.187  23.918  0.00  0.00     0.002 A 
HETATM   20  C   UNL     1       1.902  11.005  24.670  0.00  0.00     0.033 A 
ENDBRANCH   8  14
ENDBRANCH   1   7
BRANCH   2  21
HETATM   21  O   UNL     1      -0.046   7.001  23.391  0.00  0.00    -0.360 OA
HETATM   22  H   UNL     1      -0.416   7.338  24.237  0.00  0.00     0.217 HD
ENDBRANCH   2  21
BRANCH   6  23
HETATM   23  C   UNL     1       5.200   5.143  24.124  0.00  0.00     0.256 C 
HETATM   24  O   UNL     1       6.229   5.542  23.572  0.00  0.00    -0.267 OA
HETATM   25  N   UNL     1       5.214   3.983  24.909  0.00  0.00    -0.346 N 
HETATM   26  C   UNL     1       6.485   3.263  25.003  0.00  0.00     0.153 C 
BRANCH  25  27
HETATM   27  C   UNL     1       4.157   3.503  25.797  0.00  0.00     0.190 C 
BRANCH  27  28
HETATM   28  C   UNL     1       4.395   3.981  27.185  0.00  0.00     0.070 A 
HETATM   29  O   UNL     1       3.676   5.070  27.593  0.00  0.00    -0.325 OA
HETATM   30  C   UNL     1       4.081   5.361  28.857  0.00  0.00     0.142 A 
HETATM   31  C   UNL     1       5.049   4.477  29.269  0.00  0.00     0.027 A 
HETATM   32  C   UNL     1       5.234   3.569  28.201  0.00  0.00     0.036 A 
ENDBRANCH  27  28
ENDBRANCH  25  27
ENDBRANCH   6  23
BRANCH   4  33
HETATM   33  O   UNL     1       3.640   4.592  21.790  0.00  0.00    -0.360 OA
HETATM   34  H   UNL     1       2.918   3.997  21.519  0.00  0.00     0.217 HD
ENDBRANCH   4  33
TORSDOF 7
ENDMDL
MODEL 4
REMARK minimizedAffinity -6.12848902
REMARK minimizedRMSD -1
REMARK  7 active torsions:
REMARK  status: ('A' for Active; 'I' for Inactive)
REMARK    1  A    between atoms: C_7  and  N_8 
REMARK    2  A    between atoms: C_14  and  C_15 
REMARK    3  A    between atoms: C_16  and  O_17 
REMARK    4  A    between atoms: C_19  and  O_20 
REMARK    5  A    between atoms: C_22  and  C_23 
REMARK       I    between atoms: C_23  and  N_25 
REMARK    6  A    between atoms: N_25  and  C_27 
REMARK    7  A    between atoms: C_27  and  C_28 
ROOT
HETATM    1  C   UNL     1       1.062   7.349  25.517  0.00  0.00     0.046 A 
HETATM    2  C   UNL     1       0.254   6.899  24.445  0.00  0.00     0.082 A 
HETATM    3  C   UNL     1       0.645   5.851  23.614  0.00  0.00     0.075 A 
HETATM    4  C   UNL     1       1.853   5.203  23.845  0.00  0.00     0.084 A 
HETATM    5  C   UNL     1       2.289   6.692  25.715  0.00  0.00     0.038 A 
HETATM    6  C   UNL     1       2.691   5.605  24.900  0.00  0.00     0.066 A 
ENDROOT
BRANCH   1   7
HETATM    7  C   UNL     1       0.427   8.325  26.469  0.00  0.00     0.172 A 
HETATM    8  N   UNL     1      -0.071   9.587  26.242  0.00  0.00    -0.241 N 
HETATM    9  C   UNL     1      -0.636   9.978  27.446  0.00  0.00     0.349 A 
HETATM   10  O   UNL     1      -1.108  11.058  27.778  0.00  0.00    -0.245 OA
HETATM   11  N   UNL     1      -0.472   8.910  28.303  0.00  0.00    -0.226 N 
HETATM   12  H   UNL     1      -0.709   8.910  29.288  0.00  0.00     0.194 HD
HETATM   13  N   UNL     1       0.199   7.907  27.696  0.00  0.00    -0.151 NA
BRANCH   8  14
HETATM   14  C   UNL     1      -0.028  10.487  25.164  0.00  0.00     0.084 A 
HETATM   15  C   UNL     1      -1.225  10.906  24.557  0.00  0.00     0.143 A 
HETATM   16  F   UNL     1      -2.383  10.296  24.853  0.00  0.00    -0.204 F 
HETATM   17  C   UNL     1      -1.254  11.946  23.631  0.00  0.00     0.044 A 
HETATM   18  C   UNL     1      -0.064  12.566  23.257  0.00  0.00     0.003 A 
HETATM   19  C   UNL     1       1.134  12.163  23.842  0.00  0.00     0.002 A 
HETATM   20  C   UNL     1       1.143  11.162  24.821  0.00  0.00     0.033 A 
ENDBRANCH   8  14
ENDBRANCH   1   7
BRANCH   2  21
HETATM   21  O   UNL     1      -0.986   7.415  24.151  0.00  0.00    -0.360 OA
HETATM   22  H   UNL     1      -1.307   7.917  24.932  0.00  0.00     0.217 HD
ENDBRANCH   2  21
BRANCH   6  23
HETATM   23  C   UNL     1       3.741   4.649  25.381  0.00  0.00     0.256 C 
HETATM   24  O   UNL     1       3.388   3.885  26.283  0.00  0.00    -0.267 OA
HETATM   25  N   UNL     1       5.070   4.666  24.939  0.00  0.00    -0.346 N 
HETATM   26  C   UNL     1       6.006   3.773  25.623  0.00  0.00     0.153 C 
BRANCH  25  27
HETATM   27  C   UNL     1       5.599   5.337  23.753  0.00  0.00     0.190 C 
BRANCH  27  28
HETATM   28  C   UNL     1       5.152   4.632  22.522  0.00  0.00     0.070 A 
HETATM   29  O   UNL     1       4.358   5.340  21.662  0.00  0.00    -0.325 OA
HETATM   30  C   UNL     1       4.030   4.500  20.645  0.00  0.00     0.142 A 
HETATM   31  C   UNL     1       4.601   3.265  20.835  0.00  0.00     0.027 A 
HETATM   32  C   UNL     1       5.347   3.356  22.034  0.00  0.00     0.036 A 
ENDBRANCH  27  28
ENDBRANCH  25  27
ENDBRANCH   6  23
BRANCH   4  33
HETATM   33  O   UNL     1       2.182   4.147  23.035  0.00  0.00    -0.360 OA
HETATM   34  H   UNL     1       1.363   3.680  22.790  0.00  0.00     0.217 HD
ENDBRANCH   4  33
TORSDOF 7
ENDMDL
MODEL 5
REMARK minimizedAffinity -5.97461367
REMARK minimizedRMSD -1
REMARK  7 active torsions:
REMARK  status: ('A' for Active; 'I' for Inactive)
REMARK    1  A    between atoms: C_7  and  N_8 
REMARK    2  A    between atoms: C_14  and  C_15 
REMARK    3  A    between atoms: C_16  and  O_17 
REMARK    4  A    between atoms: C_19  and  O_20 
REMARK    5  A    between atoms: C_22  and  C_23 
REMARK       I    between atoms: C_23  and  N_25 
REMARK    6  A    between atoms: N_25  and  C_27 
REMARK    7  A    between atoms: C_27  and  C_28 
ROOT
HETATM    1  C   UNL     1       1.160   7.404  26.389  0.00  0.00     0.046 A 
HETATM    2  C   UNL     1       0.737   6.786  25.187  0.00  0.00     0.082 A 
HETATM    3  C   UNL     1       1.386   5.673  24.659  0.00  0.00     0.075 A 
HETATM    4  C   UNL     1       2.473   5.126  25.332  0.00  0.00     0.084 A 
HETATM    5  C   UNL     1       2.276   6.845  27.038  0.00  0.00     0.038 A 
HETATM    6  C   UNL     1       2.931   5.695  26.533  0.00  0.00     0.066 A 
ENDROOT
BRANCH   1   7
HETATM    7  C   UNL     1       0.243   8.446  26.966  0.00  0.00     0.172 A 
HETATM    8  N   UNL     1      -0.175   9.646  26.439  0.00  0.00    -0.241 N 
HETATM    9  C   UNL     1      -1.099  10.141  27.347  0.00  0.00     0.349 A 
HETATM   10  O   UNL     1      -1.667  11.225  27.378  0.00  0.00    -0.245 OA
HETATM   11  N   UNL     1      -1.199   9.187  28.339  0.00  0.00    -0.226 N 
HETATM   12  H   UNL     1      -1.737   9.286  29.191  0.00  0.00     0.194 HD
HETATM   13  N   UNL     1      -0.356   8.159  28.101  0.00  0.00    -0.151 NA
BRANCH   8  14
HETATM   14  C   UNL     1       0.194  10.419  25.325  0.00  0.00     0.084 A 
HETATM   15  C   UNL     1      -0.799  10.949  24.484  0.00  0.00     0.143 A 
HETATM   16  F   UNL     1      -2.074  10.550  24.607  0.00  0.00    -0.204 F 
HETATM   17  C   UNL     1      -0.502  11.885  23.496  0.00  0.00     0.044 A 
HETATM   18  C   UNL     1       0.818  12.282  23.301  0.00  0.00     0.003 A 
HETATM   19  C   UNL     1       1.820  11.766  24.120  0.00  0.00     0.002 A 
HETATM   20  C   UNL     1       1.500  10.876  25.153  0.00  0.00     0.033 A 
ENDBRANCH   8  14
ENDBRANCH   1   7
BRANCH   2  21
HETATM   21  O   UNL     1      -0.358   7.194  24.461  0.00  0.00    -0.360 OA
HETATM   22  H   UNL     1      -0.916   7.764  25.034  0.00  0.00     0.217 HD
ENDBRANCH   2  21
BRANCH   6  23
HETATM   23  C   UNL     1       3.794   4.862  27.432  0.00  0.00     0.256 C 
HETATM   24  O   UNL     1       4.196   3.801  26.948  0.00  0.00    -0.267 OA
HETATM   25  N   UNL     1       4.056   5.179  28.772  0.00  0.00    -0.346 N 
HETATM   26  C   UNL     1       4.785   4.182  29.558  0.00  0.00     0.153 C 
BRANCH  25  27
HETATM   27  C   UNL     1       3.850   6.466  29.432  0.00  0.00     0.190 C 
BRANCH  27  28
HETATM   28  C   UNL     1       2.568   6.457  30.187  0.00  0.00     0.070 A 
HETATM   29  O   UNL     1       1.972   5.241  30.372  0.00  0.00    -0.325 OA
HETATM   30  C   UNL     1       0.806   5.467  31.033  0.00  0.00     0.142 A 
HETATM   31  C   UNL     1       0.643   6.810  31.277  0.00  0.00     0.027 A 
HETATM   32  C   UNL     1       1.793   7.448  30.755  0.00  0.00     0.036 A 
ENDBRANCH  27  28
ENDBRANCH  25  27
ENDBRANCH   6  23
BRANCH   4  33
HETATM   33  O   UNL     1       3.056   4.003  24.805  0.00  0.00    -0.360 OA
HETATM   34  H   UNL     1       2.363   3.465  24.382  0.00  0.00     0.217 HD
ENDBRANCH   4  33
TORSDOF 7
ENDMDL
MODEL 6
REMARK minimizedAffinity -5.94577742
REMARK minimizedRMSD -1
REMARK  7 active torsions:
REMARK  status: ('A' for Active; 'I' for Inactive)
REMARK    1  A    between atoms: C_7  and  N_8 
REMARK    2  A    between atoms: C_14  and  C_15 
REMARK    3  A    between atoms: C_16  and  O_17 
REMARK    4  A    between atoms: C_19  and  O_20 
REMARK    5  A    between atoms: C_22  and  C_23 
REMARK       I    between atoms: C_23  and  N_25 
REMARK    6  A    between atoms: N_25  and  C_27 
REMARK    7  A    between atoms: C_27  and  C_28 
ROOT
HETATM    1  C   UNL     1       2.556   9.056  25.034  0.00  0.00     0.046 A 
HETATM    2  C   UNL     1       3.003   8.024  24.173  0.00  0.00     0.082 A 
HETATM    3  C   UNL     1       3.055   6.693  24.578  0.00  0.00     0.075 A 
HETATM    4  C   UNL     1       2.638   6.346  25.859  0.00  0.00     0.084 A 
HETATM    5  C   UNL     1       2.162   8.681  26.332  0.00  0.00     0.038 A 
HETATM    6  C   UNL     1       2.179   7.329  26.753  0.00  0.00     0.066 A 
ENDROOT
BRANCH   1   7
HETATM    7  C   UNL     1       2.333  10.403  24.406  0.00  0.00     0.172 A 
HETATM    8  N   UNL     1       1.258  11.256  24.499  0.00  0.00    -0.241 N 
HETATM    9  C   UNL     1       1.639  12.399  23.812  0.00  0.00     0.349 A 
HETATM   10  O   UNL     1       0.988  13.395  23.523  0.00  0.00    -0.245 OA
HETATM   11  N   UNL     1       2.931  12.168  23.386  0.00  0.00    -0.226 N 
HETATM   12  H   UNL     1       3.466  12.785  22.787  0.00  0.00     0.194 HD
HETATM   13  N   UNL     1       3.339  10.931  23.742  0.00  0.00    -0.151 NA
BRANCH   8  14
HETATM   14  C   UNL     1      -0.044  11.153  25.019  0.00  0.00     0.084 A 
HETATM   15  C   UNL     1      -1.148  11.224  24.152  0.00  0.00     0.143 A 
HETATM   16  F   UNL     1      -0.983  11.603  22.875  0.00  0.00    -0.204 F 
HETATM   17  C   UNL     1      -2.439  10.921  24.581  0.00  0.00     0.044 A 
HETATM   18  C   UNL     1      -2.657  10.578  25.912  0.00  0.00     0.003 A 
HETATM   19  C   UNL     1      -1.578  10.506  26.790  0.00  0.00     0.002 A 
HETATM   20  C   UNL     1      -0.276  10.747  26.332  0.00  0.00     0.033 A 
ENDBRANCH   8  14
ENDBRANCH   1   7
BRANCH   2  21
HETATM   21  O   UNL     1       3.383   8.229  22.868  0.00  0.00    -0.360 OA
HETATM   22  H   UNL     1       3.043   9.103  22.578  0.00  0.00     0.217 HD
ENDBRANCH   2  21
BRANCH   6  23
HETATM   23  C   UNL     1       1.357   6.894  27.929  0.00  0.00     0.256 C 
HETATM   24  O   UNL     1       0.192   6.579  27.674  0.00  0.00    -0.267 OA
HETATM   25  N   UNL     1       1.811   6.936  29.254  0.00  0.00    -0.346 N 
HETATM   26  C   UNL     1       0.833   6.630  30.299  0.00  0.00     0.153 C 
BRANCH  25  27
HETATM   27  C   UNL     1       3.193   7.071  29.711  0.00  0.00     0.190 C 
BRANCH  27  28
HETATM   28  C   UNL     1       3.842   5.735  29.786  0.00  0.00     0.070 A 
HETATM   29  O   UNL     1       4.081   5.100  28.598  0.00  0.00    -0.325 OA
HETATM   30  C   UNL     1       4.626   3.892  28.898  0.00  0.00     0.142 A 
HETATM   31  C   UNL     1       4.743   3.740  30.259  0.00  0.00     0.027 A 
HETATM   32  C   UNL     1       4.262   4.940  30.833  0.00  0.00     0.036 A 
ENDBRANCH  27  28
ENDBRANCH  25  27
ENDBRANCH   6  23
BRANCH   4  33
HETATM   33  O   UNL     1       2.660   5.020  26.205  0.00  0.00    -0.360 OA
HETATM   34  H   UNL     1       2.452   4.491  25.414  0.00  0.00     0.217 HD
ENDBRANCH   4  33
TORSDOF 7
ENDMDL
MODEL 7
REMARK minimizedAffinity -5.73411751
REMARK minimizedRMSD -1
REMARK  7 active torsions:
REMARK  status: ('A' for Active; 'I' for Inactive)
REMARK    1  A    between atoms: C_7  and  N_8 
REMARK    2  A    between atoms: C_14  and  C_15 
REMARK    3  A    between atoms: C_16  and  O_17 
REMARK    4  A    between atoms: C_19  and  O_20 
REMARK    5  A    between atoms: C_22  and  C_23 
REMARK       I    between atoms: C_23  and  N_25 
REMARK    6  A    between atoms: N_25  and  C_27 
REMARK    7  A    between atoms: C_27  and  C_28 
ROOT
HETATM    1  C   UNL     1       2.193   7.116  28.182  0.00  0.00     0.046 A 
HETATM    2  C   UNL     1       1.318   7.256  29.287  0.00  0.00     0.082 A 
HETATM    3  C   UNL     1       1.604   6.701  30.532  0.00  0.00     0.075 A 
HETATM    4  C   UNL     1       2.792   6.003  30.719  0.00  0.00     0.084 A 
HETATM    5  C   UNL     1       3.377   6.386  28.391  0.00  0.00     0.038 A 
HETATM    6  C   UNL     1       3.701   5.840  29.658  0.00  0.00     0.066 A 
ENDROOT
BRANCH   1   7
HETATM    7  C   UNL     1       1.880   7.949  26.971  0.00  0.00     0.172 A 
HETATM    8  N   UNL     1       1.881   7.609  25.638  0.00  0.00    -0.241 N 
HETATM    9  C   UNL     1       1.406   8.730  24.975  0.00  0.00     0.349 A 
HETATM   10  O   UNL     1       1.326   8.957  23.774  0.00  0.00    -0.245 OA
HETATM   11  N   UNL     1       1.117   9.654  25.958  0.00  0.00    -0.226 N 
HETATM   12  H   UNL     1       0.824  10.609  25.792  0.00  0.00     0.194 HD
HETATM   13  N   UNL     1       1.429   9.168  27.178  0.00  0.00    -0.151 NA
BRANCH   8  14
HETATM   14  C   UNL     1       2.319   6.494  24.904  0.00  0.00     0.084 A 
HETATM   15  C   UNL     1       1.539   5.325  24.879  0.00  0.00     0.143 A 
HETATM   16  F   UNL     1       0.498   5.188  25.714  0.00  0.00    -0.204 F 
HETATM   17  C   UNL     1       1.817   4.274  24.008  0.00  0.00     0.044 A 
HETATM   18  C   UNL     1       2.922   4.356  23.164  0.00  0.00     0.003 A 
HETATM   19  C   UNL     1       3.712   5.503  23.176  0.00  0.00     0.002 A 
HETATM   20  C   UNL     1       3.384   6.581  24.007  0.00  0.00     0.033 A 
ENDBRANCH   8  14
ENDBRANCH   1   7
BRANCH   2  21
HETATM   21  O   UNL     1       0.145   7.972  29.248  0.00  0.00    -0.360 OA
HETATM   22  H   UNL     1       0.165   8.560  28.462  0.00  0.00     0.217 HD
ENDBRANCH   2  21
BRANCH   6  23
HETATM   23  C   UNL     1       5.118   5.475  29.982  0.00  0.00     0.256 C 
HETATM   24  O   UNL     1       5.703   6.249  30.744  0.00  0.00    -0.267 OA
HETATM   25  N   UNL     1       5.800   4.401  29.394  0.00  0.00    -0.346 N 
HETATM   26  C   UNL     1       7.226   4.276  29.698  0.00  0.00     0.153 C 
BRANCH  25  27
HETATM   27  C   UNL     1       5.217   3.281  28.657  0.00  0.00     0.190 C 
BRANCH  27  28
HETATM   28  C   UNL     1       5.589   3.363  27.220  0.00  0.00     0.070 A 
HETATM   29  O   UNL     1       6.925   3.387  26.931  0.00  0.00    -0.325 OA
HETATM   30  C   UNL     1       7.036   3.512  25.582  0.00  0.00     0.142 A 
HETATM   31  C   UNL     1       5.793   3.568  24.998  0.00  0.00     0.027 A 
HETATM   32  C   UNL     1       4.857   3.445  26.052  0.00  0.00     0.036 A 
ENDBRANCH  27  28
ENDBRANCH  25  27
ENDBRANCH   6  23
BRANCH   4  33
HETATM   33  O   UNL     1       3.061   5.512  31.970  0.00  0.00    -0.360 OA
HETATM   34  H   UNL     1       2.694   6.129  32.628  0.00  0.00     0.217 HD
ENDBRANCH   4  33
TORSDOF 7
ENDMDL
MODEL 8
REMARK minimizedAffinity -5.67514086
REMARK minimizedRMSD -1
REMARK  7 active torsions:
REMARK  status: ('A' for Active; 'I' for Inactive)
REMARK    1  A    between atoms: C_7  and  N_8 
REMARK    2  A    between atoms: C_14  and  C_15 
REMARK    3  A    between atoms: C_16  and  O_17 
REMARK    4  A    between atoms: C_19  and  O_20 
REMARK    5  A    between atoms: C_22  and  C_23 
REMARK       I    between atoms: C_23  and  N_25 
REMARK    6  A    between atoms: N_25  and  C_27 
REMARK    7  A    between atoms: C_27  and  C_28 
ROOT
HETATM    1  C   UNL     1       3.267   6.416  29.193  0.00  0.00     0.046 A 
HETATM    2  C   UNL     1       2.531   7.576  29.537  0.00  0.00     0.082 A 
HETATM    3  C   UNL     1       1.740   8.252  28.612  0.00  0.00     0.075 A 
HETATM    4  C   UNL     1       1.642   7.772  27.310  0.00  0.00     0.084 A 
HETATM    5  C   UNL     1       3.169   5.966  27.864  0.00  0.00     0.038 A 
HETATM    6  C   UNL     1       2.346   6.621  26.916  0.00  0.00     0.066 A 
ENDROOT
BRANCH   1   7
HETATM    7  C   UNL     1       3.893   5.658  30.331  0.00  0.00     0.172 A 
HETATM    8  N   UNL     1       5.164   5.150  30.463  0.00  0.00    -0.241 N 
HETATM    9  C   UNL     1       5.225   4.651  31.756  0.00  0.00     0.349 A 
HETATM   10  O   UNL     1       6.108   4.007  32.308  0.00  0.00    -0.245 OA
HETATM   11  N   UNL     1       3.998   4.927  32.323  0.00  0.00    -0.226 N 
HETATM   12  H   UNL     1       3.697   4.619  33.239  0.00  0.00     0.194 HD
HETATM   13  N   UNL     1       3.183   5.530  31.431  0.00  0.00    -0.151 NA
BRANCH   8  14
HETATM   14  C   UNL     1       6.254   4.977  29.594  0.00  0.00     0.084 A 
HETATM   15  C   UNL     1       7.400   5.778  29.744  0.00  0.00     0.143 A 
HETATM   16  F   UNL     1       7.379   6.842  30.561  0.00  0.00    -0.204 F 
HETATM   17  C   UNL     1       8.578   5.510  29.051  0.00  0.00     0.044 A 
HETATM   18  C   UNL     1       8.621   4.448  28.152  0.00  0.00     0.003 A 
HETATM   19  C   UNL     1       7.496   3.644  27.984  0.00  0.00     0.002 A 
HETATM   20  C   UNL     1       6.338   3.882  28.735  0.00  0.00     0.033 A 
ENDBRANCH   8  14
ENDBRANCH   1   7
BRANCH   2  21
HETATM   21  O   UNL     1       2.497   8.113  30.802  0.00  0.00    -0.360 OA
HETATM   22  H   UNL     1       2.819   7.436  31.437  0.00  0.00     0.217 HD
ENDBRANCH   2  21
BRANCH   6  23
HETATM   23  C   UNL     1       1.900   5.901  25.678  0.00  0.00     0.256 C 
HETATM   24  O   UNL     1       0.788   5.371  25.745  0.00  0.00    -0.267 OA
HETATM   25  N   UNL     1       2.707   5.727  24.546  0.00  0.00    -0.346 N 
HETATM   26  C   UNL     1       2.183   4.865  23.486  0.00  0.00     0.153 C 
BRANCH  25  27
HETATM   27  C   UNL     1       3.934   6.449  24.215  0.00  0.00     0.190 C 
BRANCH  27  28
HETATM   28  C   UNL     1       5.068   5.498  24.073  0.00  0.00     0.070 A 
HETATM   29  O   UNL     1       5.767   5.546  22.898  0.00  0.00    -0.325 OA
HETATM   30  C   UNL     1       6.713   4.572  22.961  0.00  0.00     0.142 A 
HETATM   31  C   UNL     1       6.636   3.900  24.157  0.00  0.00     0.027 A 
HETATM   32  C   UNL     1       5.591   4.514  24.887  0.00  0.00     0.036 A 
ENDBRANCH  27  28
ENDBRANCH  25  27
ENDBRANCH   6  23
BRANCH   4  33
HETATM   33  O   UNL     1       0.816   8.437  26.440  0.00  0.00    -0.360 OA
HETATM   34  H   UNL     1       0.056   8.784  26.941  0.00  0.00     0.217 HD
ENDBRANCH   4  33
TORSDOF 7
ENDMDL
MODEL 9
REMARK minimizedAffinity -5.54759264
REMARK minimizedRMSD -1
REMARK  7 active torsions:
REMARK  status: ('A' for Active; 'I' for Inactive)
REMARK    1  A    between atoms: C_7  and  N_8 
REMARK    2  A    between atoms: C_14  and  C_15 
REMARK    3  A    between atoms: C_16  and  O_17 
REMARK    4  A    between atoms: C_19  and  O_20 
REMARK    5  A    between atoms: C_22  and  C_23 
REMARK       I    between atoms: C_23  and  N_25 
REMARK    6  A    between atoms: N_25  and  C_27 
REMARK    7  A    between atoms: C_27  and  C_28 
ROOT
HETATM    1  C   UNL     1       2.482   7.595  24.083  0.00  0.00     0.046 A 
HETATM    2  C   UNL     1       1.184   7.031  24.097  0.00  0.00     0.082 A 
HETATM    3  C   UNL     1       0.973   5.665  24.273  0.00  0.00     0.075 A 
HETATM    4  C   UNL     1       2.061   4.819  24.463  0.00  0.00     0.084 A 
HETATM    5  C   UNL     1       3.566   6.715  24.254  0.00  0.00     0.038 A 
HETATM    6  C   UNL     1       3.372   5.328  24.464  0.00  0.00     0.066 A 
ENDROOT
BRANCH   1   7
HETATM    7  C   UNL     1       2.560   9.097  24.115  0.00  0.00     0.172 A 
HETATM    8  N   UNL     1       1.829  10.005  24.845  0.00  0.00    -0.241 N 
HETATM    9  C   UNL     1       2.399  11.239  24.566  0.00  0.00     0.349 A 
HETATM   10  O   UNL     1       2.035  12.363  24.889  0.00  0.00    -0.245 OA
HETATM   11  N   UNL     1       3.455  10.982  23.717  0.00  0.00    -0.226 N 
HETATM   12  H   UNL     1       4.026  11.686  23.267  0.00  0.00     0.194 HD
HETATM   13  N   UNL     1       3.532   9.663  23.434  0.00  0.00    -0.151 NA
BRANCH   8  14
HETATM   14  C   UNL     1       0.681   9.930  25.651  0.00  0.00     0.084 A 
HETATM   15  C   UNL     1       0.728   9.224  26.865  0.00  0.00     0.143 A 
HETATM   16  F   UNL     1       1.782   8.447  27.157  0.00  0.00    -0.204 F 
HETATM   17  C   UNL     1      -0.308   9.292  27.794  0.00  0.00     0.044 A 
HETATM   18  C   UNL     1      -1.444  10.044  27.504  0.00  0.00     0.003 A 
HETATM   19  C   UNL     1      -1.513  10.748  26.304  0.00  0.00     0.002 A 
HETATM   20  C   UNL     1      -0.437  10.726  25.407  0.00  0.00     0.033 A 
ENDBRANCH   8  14
ENDBRANCH   1   7
BRANCH   2  21
HETATM   21  O   UNL     1       0.028   7.766  23.981  0.00  0.00    -0.360 OA
HETATM   22  H   UNL     1       0.240   8.708  24.161  0.00  0.00     0.217 HD
ENDBRANCH   2  21
BRANCH   6  23
HETATM   23  C   UNL     1       4.457   4.498  25.081  0.00  0.00     0.256 C 
HETATM   24  O   UNL     1       4.174   3.971  26.160  0.00  0.00    -0.267 OA
HETATM   25  N   UNL     1       5.752   4.396  24.555  0.00  0.00    -0.346 N 
HETATM   26  C   UNL     1       6.739   3.676  25.362  0.00  0.00     0.153 C 
BRANCH  25  27
HETATM   27  C   UNL     1       6.192   4.764  23.211  0.00  0.00     0.190 C 
BRANCH  27  28
HETATM   28  C   UNL     1       5.132   4.443  22.218  0.00  0.00     0.070 A 
HETATM   29  O   UNL     1       4.600   5.496  21.526  0.00  0.00    -0.325 OA
HETATM   30  C   UNL     1       3.629   4.989  20.721  0.00  0.00     0.142 A 
HETATM   31  C   UNL     1       3.529   3.628  20.883  0.00  0.00     0.027 A 
HETATM   32  C   UNL     1       4.517   3.270  21.830  0.00  0.00     0.036 A 
ENDBRANCH  27  28
ENDBRANCH  25  27
ENDBRANCH   6  23
BRANCH   4  33
HETATM   33  O   UNL     1       1.811   3.489  24.679  0.00  0.00    -0.360 OA
HETATM   34  H   UNL     1       0.978   3.409  25.177  0.00  0.00     0.217 HD
ENDBRANCH   4  33
TORSDOF 7
ENDMDL
