MODEL 1
REMARK VINA RESULT:    -7.506      0.000      0.000
REMARK INTER + INTRA:         -10.060
REMARK INTER:                  -8.947
REMARK INTRA:                  -1.113
REMARK UNBOUND:                -0.798
REMARK  5 active torsions:
REMARK  status: ('A' for Active; 'I' for Inactive)
REMARK    1  A    between atoms: C_3  and  O_4 
REMARK    2  A    between atoms: C_6  and  O_7 
REMARK    3  A    between atoms: C_8  and  C_9 
REMARK    4  A    between atoms: C_15  and  C_16 
REMARK    5  A    between atoms: C_19  and  O_22 
ROOT
HETATM    1  C   UNL     1       6.986  14.804  22.364  0.00  0.00     0.099 A 
HETATM    2  N   UNL     1       7.647  15.828  21.795  0.00  0.00    -0.173 NA
HETATM    3  N   UNL     1       8.385  15.287  20.829  0.00  0.00    -0.281 N 
HETATM    4  H   UNL     1       9.016  15.897  20.314  0.00  0.00     0.189 HD
HETATM    5  C   UNL     1       8.166  13.960  20.651  0.00  0.00     0.033 A 
HETATM    6  C   UNL     1       8.815  13.177  19.572  0.00  0.00     0.070 C 
HETATM    7  C   UNL     1       7.283  13.579  21.655  0.00  0.00     0.008 A 
ENDROOT
BRANCH   1   8
HETATM    8  C   UNL     1       6.074  15.069  23.500  0.00  0.00     0.028 A 
HETATM    9  C   UNL     1       4.862  15.744  23.278  0.00  0.00     0.019 A 
HETATM   10  C   UNL     1       3.995  16.073  24.327  0.00  0.00     0.037 A 
HETATM   11  C   UNL     1       4.348  15.757  25.629  0.00  0.00     0.068 A 
HETATM   12  C   UNL     1       5.541  15.101  25.895  0.00  0.00     0.074 A 
HETATM   13  C   UNL     1       6.392  14.749  24.838  0.00  0.00     0.081 A 
BRANCH  11  14
HETATM   14  O   UNL     1       3.547  16.082  26.682  0.00  0.00    -0.361 OA
HETATM   15  H   UNL     1       2.712  16.440  26.338  0.00  0.00     0.217 HD
ENDBRANCH  11  14
BRANCH  13  16
HETATM   16  O   UNL     1       7.536  14.060  25.153  0.00  0.00    -0.360 OA
HETATM   17  H   UNL     1       7.478  13.761  26.075  0.00  0.00     0.217 HD
ENDBRANCH  13  16
ENDBRANCH   1   8
BRANCH   7  18
HETATM   18  C   UNL     1       6.844  12.150  21.842  0.00  0.00     0.068 C 
HETATM   19  C   UNL     1       7.552  11.418  22.957  0.00  0.00    -0.015 C 
HETATM   20  C   UNL     1       6.952  10.441  23.660  0.00  0.00     0.006 C 
HETATM   21  C   UNL     1       5.512  10.043  23.447  0.00  0.00     0.166 C 
HETATM   22  C   UNL     1       4.743  10.996  22.563  0.00  0.00     0.006 C 
HETATM   23  C   UNL     1       5.339  11.969  21.851  0.00  0.00    -0.015 C 
BRANCH  21  24
HETATM   24  O   UNL     1       5.389   8.707  22.954  0.00  0.00    -0.383 OA
HETATM   25  C   UNL     1       4.343   8.490  22.013  0.00  0.00     0.202 C 
ENDBRANCH  21  24
ENDBRANCH   7  18
TORSDOF 5
ENDMDL
MODEL 2
REMARK VINA RESULT:    -7.465      5.256      7.124
REMARK INTER + INTRA:         -10.009
REMARK INTER:                  -9.219
REMARK INTRA:                  -0.790
REMARK UNBOUND:                -0.798
REMARK  5 active torsions:
REMARK  status: ('A' for Active; 'I' for Inactive)
REMARK    1  A    between atoms: C_3  and  O_4 
REMARK    2  A    between atoms: C_6  and  O_7 
REMARK    3  A    between atoms: C_8  and  C_9 
REMARK    4  A    between atoms: C_15  and  C_16 
REMARK    5  A    between atoms: C_19  and  O_22 
ROOT
HETATM    1  C   UNL     1       0.604  13.945  26.176  0.00  0.00     0.099 A 
HETATM    2  N   UNL     1       0.261  14.539  27.334  0.00  0.00    -0.173 NA
HETATM    3  N   UNL     1       1.342  15.204  27.732  0.00  0.00    -0.281 N 
HETATM    4  H   UNL     1       1.307  15.674  28.633  0.00  0.00     0.189 HD
HETATM    5  C   UNL     1       2.362  15.175  26.838  0.00  0.00     0.033 A 
HETATM    6  C   UNL     1       3.627  15.923  27.038  0.00  0.00     0.070 C 
HETATM    7  C   UNL     1       1.949  14.334  25.811  0.00  0.00     0.008 A 
ENDROOT
BRANCH   1   8
HETATM    8  C   UNL     1      -0.387  13.104  25.469  0.00  0.00     0.028 A 
HETATM    9  C   UNL     1      -0.430  13.107  24.064  0.00  0.00     0.019 A 
HETATM   10  C   UNL     1      -1.387  12.377  23.351  0.00  0.00     0.037 A 
HETATM   11  C   UNL     1      -2.346  11.653  24.040  0.00  0.00     0.068 A 
HETATM   12  C   UNL     1      -2.349  11.630  25.428  0.00  0.00     0.074 A 
HETATM   13  C   UNL     1      -1.370  12.341  26.136  0.00  0.00     0.081 A 
BRANCH  11  14
HETATM   14  O   UNL     1      -3.312  10.949  23.387  0.00  0.00    -0.361 OA
HETATM   15  H   UNL     1      -3.034  10.821  22.465  0.00  0.00     0.217 HD
ENDBRANCH  11  14
BRANCH  13  16
HETATM   16  O   UNL     1      -1.390  12.246  27.505  0.00  0.00    -0.360 OA
HETATM   17  H   UNL     1      -0.678  11.650  27.788  0.00  0.00     0.217 HD
ENDBRANCH  13  16
ENDBRANCH   1   8
BRANCH   7  18
HETATM   18  C   UNL     1       2.840  13.983  24.649  0.00  0.00     0.068 C 
HETATM   19  C   UNL     1       3.401  15.173  23.908  0.00  0.00    -0.015 C 
HETATM   20  C   UNL     1       4.600  15.132  23.298  0.00  0.00     0.006 C 
HETATM   21  C   UNL     1       5.510  13.930  23.360  0.00  0.00     0.166 C 
HETATM   22  C   UNL     1       5.073  12.888  24.363  0.00  0.00     0.006 C 
HETATM   23  C   UNL     1       3.872  12.920  24.968  0.00  0.00    -0.015 C 
BRANCH  21  24
HETATM   24  O   UNL     1       5.698  13.329  22.077  0.00  0.00    -0.383 OA
HETATM   25  C   UNL     1       5.960  11.929  22.083  0.00  0.00     0.202 C 
ENDBRANCH  21  24
ENDBRANCH   7  18
TORSDOF 5
ENDMDL
MODEL 3
REMARK VINA RESULT:    -7.075      6.623      8.379
REMARK INTER + INTRA:          -9.527
REMARK INTER:                  -8.788
REMARK INTRA:                  -0.740
REMARK UNBOUND:                -0.798
REMARK  5 active torsions:
REMARK  status: ('A' for Active; 'I' for Inactive)
REMARK    1  A    between atoms: C_3  and  O_4 
REMARK    2  A    between atoms: C_6  and  O_7 
REMARK    3  A    between atoms: C_8  and  C_9 
REMARK    4  A    between atoms: C_15  and  C_16 
REMARK    5  A    between atoms: C_19  and  O_22 
ROOT
HETATM    1  C   UNL     1      -1.643  11.375  24.543  0.00  0.00     0.099 A 
HETATM    2  N   UNL     1      -2.676  11.196  23.698  0.00  0.00    -0.173 NA
HETATM    3  N   UNL     1      -2.387  11.917  22.619  0.00  0.00    -0.281 N 
HETATM    4  H   UNL     1      -3.083  11.967  21.880  0.00  0.00     0.189 HD
HETATM    5  C   UNL     1      -1.155  12.486  22.654  0.00  0.00     0.033 A 
HETATM    6  C   UNL     1      -0.595  13.257  21.518  0.00  0.00     0.070 C 
HETATM    7  C   UNL     1      -0.633  12.193  23.908  0.00  0.00     0.008 A 
ENDROOT
BRANCH   1   8
HETATM    8  C   UNL     1      -1.660  10.707  25.864  0.00  0.00     0.028 A 
HETATM    9  C   UNL     1      -2.448  11.234  26.901  0.00  0.00     0.019 A 
HETATM   10  C   UNL     1      -2.452  10.677  28.185  0.00  0.00     0.037 A 
HETATM   11  C   UNL     1      -1.633   9.593  28.460  0.00  0.00     0.068 A 
HETATM   12  C   UNL     1      -0.830   9.047  27.469  0.00  0.00     0.074 A 
HETATM   13  C   UNL     1      -0.852   9.593  26.178  0.00  0.00     0.081 A 
BRANCH  11  14
HETATM   14  O   UNL     1      -1.585   9.035  29.702  0.00  0.00    -0.361 OA
HETATM   15  H   UNL     1      -0.856   9.442  30.198  0.00  0.00     0.217 HD
ENDBRANCH  11  14
BRANCH  13  16
HETATM   16  O   UNL     1      -0.075   8.986  25.224  0.00  0.00    -0.360 OA
HETATM   17  H   UNL     1      -0.601   8.301  24.780  0.00  0.00     0.217 HD
ENDBRANCH  13  16
ENDBRANCH   1   8
BRANCH   7  18
HETATM   18  C   UNL     1       0.704  12.714  24.365  0.00  0.00     0.068 C 
HETATM   19  C   UNL     1       1.888  11.914  23.877  0.00  0.00    -0.015 C 
HETATM   20  C   UNL     1       3.086  12.484  23.647  0.00  0.00     0.006 C 
HETATM   21  C   UNL     1       3.328  13.966  23.785  0.00  0.00     0.166 C 
HETATM   22  C   UNL     1       2.064  14.775  23.958  0.00  0.00     0.006 C 
HETATM   23  C   UNL     1       0.867  14.212  24.198  0.00  0.00    -0.015 C 
BRANCH  21  24
HETATM   24  O   UNL     1       4.252  14.266  24.835  0.00  0.00    -0.383 OA
HETATM   25  C   UNL     1       4.165  15.580  25.376  0.00  0.00     0.202 C 
ENDBRANCH  21  24
ENDBRANCH   7  18
TORSDOF 5
ENDMDL
MODEL 4
REMARK VINA RESULT:    -7.043      1.801      5.244
REMARK INTER + INTRA:          -9.488
REMARK INTER:                  -8.111
REMARK INTRA:                  -1.378
REMARK UNBOUND:                -0.798
REMARK  5 active torsions:
REMARK  status: ('A' for Active; 'I' for Inactive)
REMARK    1  A    between atoms: C_3  and  O_4 
REMARK    2  A    between atoms: C_6  and  O_7 
REMARK    3  A    between atoms: C_8  and  C_9 
REMARK    4  A    between atoms: C_15  and  C_16 
REMARK    5  A    between atoms: C_19  and  O_22 
ROOT
HETATM    1  C   UNL     1       7.987  13.038  22.860  0.00  0.00     0.099 A 
HETATM    2  N   UNL     1       9.234  12.809  22.409  0.00  0.00    -0.173 NA
HETATM    3  N   UNL     1       9.933  13.898  22.717  0.00  0.00    -0.281 N 
HETATM    4  H   UNL     1      10.898  13.949  22.399  0.00  0.00     0.189 HD
HETATM    5  C   UNL     1       9.240  14.804  23.451  0.00  0.00     0.033 A 
HETATM    6  C   UNL     1       9.853  16.048  23.978  0.00  0.00     0.070 C 
HETATM    7  C   UNL     1       7.944  14.310  23.547  0.00  0.00     0.008 A 
ENDROOT
BRANCH   1   8
HETATM    8  C   UNL     1       6.941  12.009  22.661  0.00  0.00     0.028 A 
HETATM    9  C   UNL     1       5.711  12.367  22.085  0.00  0.00     0.019 A 
HETATM   10  C   UNL     1       4.669  11.445  21.931  0.00  0.00     0.037 A 
HETATM   11  C   UNL     1       4.834  10.147  22.387  0.00  0.00     0.068 A 
HETATM   12  C   UNL     1       6.028   9.752  22.973  0.00  0.00     0.074 A 
HETATM   13  C   UNL     1       7.078  10.673  23.098  0.00  0.00     0.081 A 
BRANCH  11  14
HETATM   14  O   UNL     1       3.837   9.224  22.282  0.00  0.00    -0.361 OA
HETATM   15  H   UNL     1       2.983   9.680  22.351  0.00  0.00     0.217 HD
ENDBRANCH  11  14
BRANCH  13  16
HETATM   16  O   UNL     1       8.253  10.218  23.642  0.00  0.00    -0.360 OA
HETATM   17  H   UNL     1       8.328  10.551  24.551  0.00  0.00     0.217 HD
ENDBRANCH  13  16
ENDBRANCH   1   8
BRANCH   7  18
HETATM   18  C   UNL     1       6.841  15.071  24.234  0.00  0.00     0.068 C 
HETATM   19  C   UNL     1       5.819  15.674  23.300  0.00  0.00    -0.015 C 
HETATM   20  C   UNL     1       4.533  15.838  23.662  0.00  0.00     0.006 C 
HETATM   21  C   UNL     1       3.990  15.373  24.990  0.00  0.00     0.166 C 
HETATM   22  C   UNL     1       4.945  14.495  25.763  0.00  0.00     0.006 C 
HETATM   23  C   UNL     1       6.233  14.335  25.413  0.00  0.00    -0.015 C 
BRANCH  21  24
HETATM   24  O   UNL     1       3.554  16.464  25.806  0.00  0.00    -0.383 OA
HETATM   25  C   UNL     1       2.927  16.105  27.032  0.00  0.00     0.202 C 
ENDBRANCH  21  24
ENDBRANCH   7  18
TORSDOF 5
ENDMDL
MODEL 5
REMARK VINA RESULT:    -7.029      2.825      5.615
REMARK INTER + INTRA:          -9.471
REMARK INTER:                  -8.611
REMARK INTRA:                  -0.860
REMARK UNBOUND:                -0.798
REMARK  5 active torsions:
REMARK  status: ('A' for Active; 'I' for Inactive)
REMARK    1  A    between atoms: C_3  and  O_4 
REMARK    2  A    between atoms: C_6  and  O_7 
REMARK    3  A    between atoms: C_8  and  C_9 
REMARK    4  A    between atoms: C_15  and  C_16 
REMARK    5  A    between atoms: C_19  and  O_22 
ROOT
HETATM    1  C   UNL     1       8.257  14.017  23.594  0.00  0.00     0.099 A 
HETATM    2  N   UNL     1       9.354  14.054  24.374  0.00  0.00    -0.173 NA
HETATM    3  N   UNL     1       8.918  14.359  25.593  0.00  0.00    -0.281 N 
HETATM    4  H   UNL     1       9.611  14.500  26.324  0.00  0.00     0.189 HD
HETATM    5  C   UNL     1       7.567  14.421  25.692  0.00  0.00     0.033 A 
HETATM    6  C   UNL     1       6.866  14.659  26.978  0.00  0.00     0.070 C 
HETATM    7  C   UNL     1       7.079  14.240  24.403  0.00  0.00     0.008 A 
ENDROOT
BRANCH   1   8
HETATM    8  C   UNL     1       8.399  13.713  22.153  0.00  0.00     0.028 A 
HETATM    9  C   UNL     1       8.186  14.725  21.202  0.00  0.00     0.019 A 
HETATM   10  C   UNL     1       8.249  14.474  19.827  0.00  0.00     0.037 A 
HETATM   11  C   UNL     1       8.494  13.186  19.378  0.00  0.00     0.068 A 
HETATM   12  C   UNL     1       8.699  12.153  20.282  0.00  0.00     0.074 A 
HETATM   13  C   UNL     1       8.664  12.417  21.658  0.00  0.00     0.081 A 
BRANCH  11  14
HETATM   14  O   UNL     1       8.538  12.891  18.049  0.00  0.00    -0.361 OA
HETATM   15  H   UNL     1       8.852  11.979  17.943  0.00  0.00     0.217 HD
ENDBRANCH  11  14
BRANCH  13  16
HETATM   16  O   UNL     1       8.920  11.370  22.507  0.00  0.00    -0.360 OA
HETATM   17  H   UNL     1       9.118  10.580  21.979  0.00  0.00     0.217 HD
ENDBRANCH  13  16
ENDBRANCH   1   8
BRANCH   7  18
HETATM   18  C   UNL     1       5.609  14.313  24.081  0.00  0.00     0.068 C 
HETATM   19  C   UNL     1       4.741  13.387  24.899  0.00  0.00    -0.015 C 
HETATM   20  C   UNL     1       3.468  13.695  25.210  0.00  0.00     0.006 C 
HETATM   21  C   UNL     1       2.827  15.008  24.834  0.00  0.00     0.166 C 
HETATM   22  C   UNL     1       3.804  16.032  24.307  0.00  0.00     0.006 C 
HETATM   23  C   UNL     1       5.074  15.728  23.985  0.00  0.00    -0.015 C 
BRANCH  21  24
HETATM   24  O   UNL     1       1.748  14.836  23.912  0.00  0.00    -0.383 OA
HETATM   25  C   UNL     1       0.764  13.878  24.285  0.00  0.00     0.202 C 
ENDBRANCH  21  24
ENDBRANCH   7  18
TORSDOF 5
ENDMDL
MODEL 6
REMARK VINA RESULT:    -6.768      3.081      3.972
REMARK INTER + INTRA:          -9.149
REMARK INTER:                  -7.840
REMARK INTRA:                  -1.310
REMARK UNBOUND:                -0.798
REMARK  5 active torsions:
REMARK  status: ('A' for Active; 'I' for Inactive)
REMARK    1  A    between atoms: C_3  and  O_4 
REMARK    2  A    between atoms: C_6  and  O_7 
REMARK    3  A    between atoms: C_8  and  C_9 
REMARK    4  A    between atoms: C_15  and  C_16 
REMARK    5  A    between atoms: C_19  and  O_22 
ROOT
HETATM    1  C   UNL     1       3.474  14.543  23.823  0.00  0.00     0.099 A 
HETATM    2  N   UNL     1       3.593  15.884  23.826  0.00  0.00    -0.173 NA
HETATM    3  N   UNL     1       4.866  16.132  23.532  0.00  0.00    -0.281 N 
HETATM    4  H   UNL     1       5.178  17.100  23.547  0.00  0.00     0.189 HD
HETATM    5  C   UNL     1       5.584  15.022  23.224  0.00  0.00     0.033 A 
HETATM    6  C   UNL     1       6.998  15.078  22.780  0.00  0.00     0.070 C 
HETATM    7  C   UNL     1       4.731  13.945  23.433  0.00  0.00     0.008 A 
ENDROOT
BRANCH   1   8
HETATM    8  C   UNL     1       2.162  13.930  24.132  0.00  0.00     0.028 A 
HETATM    9  C   UNL     1       1.471  13.223  23.134  0.00  0.00     0.019 A 
HETATM   10  C   UNL     1       0.202  12.677  23.357  0.00  0.00     0.037 A 
HETATM   11  C   UNL     1      -0.414  12.862  24.585  0.00  0.00     0.068 A 
HETATM   12  C   UNL     1       0.227  13.564  25.596  0.00  0.00     0.074 A 
HETATM   13  C   UNL     1       1.511  14.083  25.375  0.00  0.00     0.081 A 
BRANCH  11  14
HETATM   14  O   UNL     1      -1.660  12.371  24.837  0.00  0.00    -0.361 OA
HETATM   15  H   UNL     1      -2.200  13.079  25.224  0.00  0.00     0.217 HD
ENDBRANCH  11  14
BRANCH  13  16
HETATM   16  O   UNL     1       2.118  14.727  26.423  0.00  0.00    -0.360 OA
HETATM   17  H   UNL     1       1.604  15.520  26.645  0.00  0.00     0.217 HD
ENDBRANCH  13  16
ENDBRANCH   1   8
BRANCH   7  18
HETATM   18  C   UNL     1       5.182  12.517  23.266  0.00  0.00     0.068 C 
HETATM   19  C   UNL     1       4.782  11.598  24.395  0.00  0.00    -0.015 C 
HETATM   20  C   UNL     1       4.540  10.289  24.195  0.00  0.00     0.006 C 
HETATM   21  C   UNL     1       4.576   9.647  22.830  0.00  0.00     0.166 C 
HETATM   22  C   UNL     1       4.659  10.640  21.695  0.00  0.00     0.006 C 
HETATM   23  C   UNL     1       4.911  11.947  21.888  0.00  0.00    -0.015 C 
BRANCH  21  24
HETATM   24  O   UNL     1       5.624   8.681  22.716  0.00  0.00    -0.383 OA
HETATM   25  C   UNL     1       5.438   7.685  21.716  0.00  0.00     0.202 C 
ENDBRANCH  21  24
ENDBRANCH   7  18
TORSDOF 5
ENDMDL
MODEL 7
REMARK VINA RESULT:    -6.742      3.065      4.473
REMARK INTER + INTRA:          -9.117
REMARK INTER:                  -7.826
REMARK INTRA:                  -1.291
REMARK UNBOUND:                -0.798
REMARK  5 active torsions:
REMARK  status: ('A' for Active; 'I' for Inactive)
REMARK    1  A    between atoms: C_3  and  O_4 
REMARK    2  A    between atoms: C_6  and  O_7 
REMARK    3  A    between atoms: C_8  and  C_9 
REMARK    4  A    between atoms: C_15  and  C_16 
REMARK    5  A    between atoms: C_19  and  O_22 
ROOT
HETATM    1  C   UNL     1       6.280  14.553  25.811  0.00  0.00     0.099 A 
HETATM    2  N   UNL     1       6.345  14.828  27.127  0.00  0.00    -0.173 NA
HETATM    3  N   UNL     1       7.638  14.797  27.437  0.00  0.00    -0.281 N 
HETATM    4  H   UNL     1       7.896  14.918  28.413  0.00  0.00     0.189 HD
HETATM    5  C   UNL     1       8.454  14.623  26.367  0.00  0.00     0.033 A 
HETATM    6  C   UNL     1       9.933  14.647  26.472  0.00  0.00     0.070 C 
HETATM    7  C   UNL     1       7.617  14.421  25.276  0.00  0.00     0.008 A 
ENDROOT
BRANCH   1   8
HETATM    8  C   UNL     1       4.959  14.496  25.145  0.00  0.00     0.028 A 
HETATM    9  C   UNL     1       4.582  15.516  24.256  0.00  0.00     0.019 A 
HETATM   10  C   UNL     1       3.321  15.540  23.648  0.00  0.00     0.037 A 
HETATM   11  C   UNL     1       2.398  14.552  23.952  0.00  0.00     0.068 A 
HETATM   12  C   UNL     1       2.724  13.531  24.834  0.00  0.00     0.074 A 
HETATM   13  C   UNL     1       3.999  13.497  25.417  0.00  0.00     0.081 A 
BRANCH  11  14
HETATM   14  O   UNL     1       1.151  14.551  23.404  0.00  0.00    -0.361 OA
HETATM   15  H   UNL     1       0.522  14.888  24.063  0.00  0.00     0.217 HD
ENDBRANCH  11  14
BRANCH  13  16
HETATM   16  O   UNL     1       4.285  12.441  26.245  0.00  0.00    -0.360 OA
HETATM   17  H   UNL     1       3.608  11.755  26.123  0.00  0.00     0.217 HD
ENDBRANCH  13  16
ENDBRANCH   1   8
BRANCH   7  18
HETATM   18  C   UNL     1       8.147  14.117  23.899  0.00  0.00     0.068 C 
HETATM   19  C   UNL     1       7.569  12.875  23.264  0.00  0.00    -0.015 C 
HETATM   20  C   UNL     1       7.423  12.759  21.931  0.00  0.00     0.006 C 
HETATM   21  C   UNL     1       7.752  13.874  20.970  0.00  0.00     0.166 C 
HETATM   22  C   UNL     1       8.018  15.199  21.646  0.00  0.00     0.006 C 
HETATM   23  C   UNL     1       8.175  15.320  22.976  0.00  0.00    -0.015 C 
BRANCH  21  24
HETATM   24  O   UNL     1       8.839  13.536  20.105  0.00  0.00    -0.383 OA
HETATM   25  C   UNL     1       8.474  13.005  18.835  0.00  0.00     0.202 C 
ENDBRANCH  21  24
ENDBRANCH   7  18
TORSDOF 5
ENDMDL
MODEL 8
REMARK VINA RESULT:    -6.680      1.730      5.671
REMARK INTER + INTRA:          -9.040
REMARK INTER:                  -8.242
REMARK INTRA:                  -0.798
REMARK UNBOUND:                -0.798
REMARK  5 active torsions:
REMARK  status: ('A' for Active; 'I' for Inactive)
REMARK    1  A    between atoms: C_3  and  O_4 
REMARK    2  A    between atoms: C_6  and  O_7 
REMARK    3  A    between atoms: C_8  and  C_9 
REMARK    4  A    between atoms: C_15  and  C_16 
REMARK    5  A    between atoms: C_19  and  O_22 
ROOT
HETATM    1  C   UNL     1       6.597  12.022  21.521  0.00  0.00     0.099 A 
HETATM    2  N   UNL     1       7.674  12.094  20.716  0.00  0.00    -0.173 NA
HETATM    3  N   UNL     1       8.206  13.293  20.934  0.00  0.00    -0.281 N 
HETATM    4  H   UNL     1       9.003  13.570  20.367  0.00  0.00     0.189 HD
HETATM    5  C   UNL     1       7.599  13.989  21.928  0.00  0.00     0.033 A 
HETATM    6  C   UNL     1       8.085  15.310  22.396  0.00  0.00     0.070 C 
HETATM    7  C   UNL     1       6.513  13.219  22.328  0.00  0.00     0.008 A 
ENDROOT
BRANCH   1   8
HETATM    8  C   UNL     1       5.761  10.800  21.509  0.00  0.00     0.028 A 
HETATM    9  C   UNL     1       5.127  10.378  22.690  0.00  0.00     0.019 A 
HETATM   10  C   UNL     1       4.378   9.197  22.746  0.00  0.00     0.037 A 
HETATM   11  C   UNL     1       4.279   8.397  21.619  0.00  0.00     0.068 A 
HETATM   12  C   UNL     1       4.899   8.769  20.435  0.00  0.00     0.074 A 
HETATM   13  C   UNL     1       5.624   9.967  20.377  0.00  0.00     0.081 A 
BRANCH  11  14
HETATM   14  O   UNL     1       3.581   7.226  21.636  0.00  0.00    -0.361 OA
HETATM   15  H   UNL     1       4.003   6.604  21.021  0.00  0.00     0.217 HD
ENDBRANCH  11  14
BRANCH  13  16
HETATM   16  O   UNL     1       6.177  10.311  19.169  0.00  0.00    -0.360 OA
HETATM   17  H   UNL     1       5.731  11.106  18.835  0.00  0.00     0.217 HD
ENDBRANCH  13  16
ENDBRANCH   1   8
BRANCH   7  18
HETATM   18  C   UNL     1       5.536  13.686  23.375  0.00  0.00     0.068 C 
HETATM   19  C   UNL     1       6.056  13.618  24.791  0.00  0.00    -0.015 C 
HETATM   20  C   UNL     1       5.652  14.482  25.740  0.00  0.00     0.006 C 
HETATM   21  C   UNL     1       4.709  15.626  25.459  0.00  0.00     0.166 C 
HETATM   22  C   UNL     1       4.463  15.862  23.988  0.00  0.00     0.006 C 
HETATM   23  C   UNL     1       4.856  14.997  23.036  0.00  0.00    -0.015 C 
BRANCH  21  24
HETATM   24  O   UNL     1       3.466  15.482  26.150  0.00  0.00    -0.383 OA
HETATM   25  C   UNL     1       2.802  14.235  25.972  0.00  0.00     0.202 C 
ENDBRANCH  21  24
ENDBRANCH   7  18
TORSDOF 5
ENDMDL
MODEL 9
REMARK VINA RESULT:    -6.633      2.515      5.558
REMARK INTER + INTRA:          -8.982
REMARK INTER:                  -7.674
REMARK INTRA:                  -1.308
REMARK UNBOUND:                -0.798
REMARK  5 active torsions:
REMARK  status: ('A' for Active; 'I' for Inactive)
REMARK    1  A    between atoms: C_3  and  O_4 
REMARK    2  A    between atoms: C_6  and  O_7 
REMARK    3  A    between atoms: C_8  and  C_9 
REMARK    4  A    between atoms: C_15  and  C_16 
REMARK    5  A    between atoms: C_19  and  O_22 
ROOT
HETATM    1  C   UNL     1       8.381  13.005  23.509  0.00  0.00     0.099 A 
HETATM    2  N   UNL     1       9.693  12.853  23.768  0.00  0.00    -0.173 NA
HETATM    3  N   UNL     1       9.933  13.586  24.851  0.00  0.00    -0.281 N 
HETATM    4  H   UNL     1      10.895  13.655  25.175  0.00  0.00     0.189 HD
HETATM    5  C   UNL     1       8.820  14.137  25.397  0.00  0.00     0.033 A 
HETATM    6  C   UNL     1       8.846  14.918  26.659  0.00  0.00     0.070 C 
HETATM    7  C   UNL     1       7.774  13.819  24.539  0.00  0.00     0.008 A 
ENDROOT
BRANCH   1   8
HETATM    8  C   UNL     1       7.786  12.319  22.340  0.00  0.00     0.028 A 
HETATM    9  C   UNL     1       6.629  11.540  22.503  0.00  0.00     0.019 A 
HETATM   10  C   UNL     1       6.063  10.823  21.443  0.00  0.00     0.037 A 
HETATM   11  C   UNL     1       6.675  10.848  20.199  0.00  0.00     0.068 A 
HETATM   12  C   UNL     1       7.826  11.595  19.996  0.00  0.00     0.074 A 
HETATM   13  C   UNL     1       8.371  12.334  21.055  0.00  0.00     0.081 A 
BRANCH  11  14
HETATM   14  O   UNL     1       6.173  10.144  19.146  0.00  0.00    -0.361 OA
HETATM   15  H   UNL     1       6.558  10.496  18.326  0.00  0.00     0.217 HD
ENDBRANCH  11  14
BRANCH  13  16
HETATM   16  O   UNL     1       9.483  13.092  20.787  0.00  0.00    -0.360 OA
HETATM   17  H   UNL     1       9.530  13.252  19.831  0.00  0.00     0.217 HD
ENDBRANCH  13  16
ENDBRANCH   1   8
BRANCH   7  18
HETATM   18  C   UNL     1       6.370  14.315  24.763  0.00  0.00     0.068 C 
HETATM   19  C   UNL     1       5.793  15.105  23.612  0.00  0.00    -0.015 C 
HETATM   20  C   UNL     1       4.475  15.107  23.341  0.00  0.00     0.006 C 
HETATM   21  C   UNL     1       3.478  14.275  24.109  0.00  0.00     0.166 C 
HETATM   22  C   UNL     1       4.115  13.262  25.031  0.00  0.00     0.006 C 
HETATM   23  C   UNL     1       5.430  13.261  25.313  0.00  0.00    -0.015 C 
BRANCH  21  24
HETATM   24  O   UNL     1       2.546  15.083  24.834  0.00  0.00    -0.383 OA
HETATM   25  C   UNL     1       2.292  14.678  26.175  0.00  0.00     0.202 C 
ENDBRANCH  21  24
ENDBRANCH   7  18
TORSDOF 5
ENDMDL
