MODEL 1
REMARK minimizedAffinity -10.7333565
REMARK minimizedRMSD -1
REMARK  6 active torsions:
REMARK  status: ('A' for Active; 'I' for Inactive)
REMARK    1  A    between atoms: C_6  and  C_7 
REMARK    2  A    between atoms: C_7  and  N_8 
REMARK       I    between atoms: N_8  and  C_10 
REMARK    3  A    between atoms: C_10  and  C_12 
REMARK    4  A    between atoms: C_14  and  O_15 
REMARK    5  A    between atoms: C_22  and  C_23 
REMARK    6  A    between atoms: C_23  and  C_24 
ROOT
HETATM    1  C   UNL     1       1.367  12.638  23.486  0.00  0.00     0.158 A 
HETATM    2  C   UNL     1       0.776  11.945  24.718  0.00  0.00     0.010 A 
HETATM    3  C   UNL     1       0.282  13.058  22.479  0.00  0.00     0.062 A 
HETATM    4  C   UNL     1      -1.022  12.759  22.586  0.00  0.00     0.065 A 
HETATM    5  C   UNL     1      -1.446  11.999  23.752  0.00  0.00     0.064 A 
HETATM    6  C   UNL     1      -0.520  11.625  24.799  0.00  0.00     0.016 A 
HETATM    7  N   UNL     1      -2.611  11.551  24.047  0.00  0.00    -0.277 N 
HETATM    8  H   UNL     1      -3.457  11.642  23.483  0.00  0.00     0.189 HD
HETATM    9  N   UNL     1      -2.665  10.827  25.311  0.00  0.00    -0.178 NA
HETATM   10  C   UNL     1      -1.414  10.896  25.716  0.00  0.00     0.071 A 
ENDROOT
BRANCH   1  11
HETATM   11  C   UNL     1       2.242  13.860  23.909  0.00  0.00     0.233 C 
HETATM   12  N   UNL     1       3.633  13.728  23.872  0.00  0.00    -0.351 N 
HETATM   13  C   UNL     1       4.327  12.459  23.685  0.00  0.00     0.153 C 
HETATM   14  O   UNL     1       1.693  14.912  24.245  0.00  0.00    -0.272 OA
BRANCH  12  15
HETATM   15  C   UNL     1       4.472  14.884  24.233  0.00  0.00     0.164 C 
BRANCH  15  16
HETATM   16  C   UNL     1       5.697  14.631  25.087  0.00  0.00    -0.040 A 
HETATM   17  C   UNL     1       5.585  14.459  26.478  0.00  0.00     0.009 A 
HETATM   18  C   UNL     1       6.718  14.511  27.302  0.00  0.00     0.001 A 
HETATM   19  C   UNL     1       7.981  14.713  26.749  0.00  0.00     0.000 A 
HETATM   20  C   UNL     1       8.116  14.815  25.367  0.00  0.00     0.001 A 
HETATM   21  C   UNL     1       6.985  14.765  24.541  0.00  0.00     0.009 A 
ENDBRANCH  15  16
ENDBRANCH  12  15
ENDBRANCH   1  11
BRANCH   3  22
HETATM   22  O   UNL     1       0.683  13.742  21.342  0.00  0.00    -0.364 OA
HETATM   23  H   UNL     1       1.541  14.185  21.488  0.00  0.00     0.217 HD
ENDBRANCH   3  22
BRANCH  10  24
HETATM   24  C   UNL     1      -0.938  10.208  26.977  0.00  0.00     0.100 C 
BRANCH  24  25
HETATM   25  C   UNL     1      -0.549   8.779  26.693  0.00  0.00    -0.052 A 
HETATM   26  C   UNL     1      -0.602   7.817  27.708  0.00  0.00     0.007 A 
HETATM   27  C   UNL     1      -0.164   6.514  27.471  0.00  0.00     0.001 A 
HETATM   28  C   UNL     1       0.335   6.159  26.218  0.00  0.00     0.007 A 
HETATM   29  C   UNL     1       0.388   7.101  25.185  0.00  0.00    -0.061 A 
HETATM   30  C   UNL     1      -0.068   8.406  25.427  0.00  0.00     0.014 A 
HETATM   31  C   UNL     1       0.920   6.722  23.833  0.00  0.00     0.048 C 
ENDBRANCH  24  25
ENDBRANCH  10  24
TORSDOF 6
ENDMDL
MODEL 2
REMARK minimizedAffinity -9.71803761
REMARK minimizedRMSD -1
REMARK  6 active torsions:
REMARK  status: ('A' for Active; 'I' for Inactive)
REMARK    1  A    between atoms: C_6  and  C_7 
REMARK    2  A    between atoms: C_7  and  N_8 
REMARK       I    between atoms: N_8  and  C_10 
REMARK    3  A    between atoms: C_10  and  C_12 
REMARK    4  A    between atoms: C_14  and  O_15 
REMARK    5  A    between atoms: C_22  and  C_23 
REMARK    6  A    between atoms: C_23  and  C_24 
ROOT
HETATM    1  C   UNL     1       4.754   9.028  23.943  0.00  0.00     0.158 A 
HETATM    2  C   UNL     1       5.208  10.480  23.755  0.00  0.00     0.010 A 
HETATM    3  C   UNL     1       5.881   8.132  24.486  0.00  0.00     0.062 A 
HETATM    4  C   UNL     1       7.152   8.523  24.669  0.00  0.00     0.065 A 
HETATM    5  C   UNL     1       7.485   9.903  24.350  0.00  0.00     0.064 A 
HETATM    6  C   UNL     1       6.483  10.850  23.911  0.00  0.00     0.016 A 
HETATM    7  N   UNL     1       8.625  10.490  24.388  0.00  0.00    -0.277 N 
HETATM    8  H   UNL     1       9.518  10.066  24.640  0.00  0.00     0.189 HD
HETATM    9  N   UNL     1       8.581  11.895  24.000  0.00  0.00    -0.178 NA
HETATM   10  C   UNL     1       7.303  12.060  23.727  0.00  0.00     0.071 A 
ENDROOT
BRANCH   1  11
HETATM   11  C   UNL     1       3.493   8.960  24.861  0.00  0.00     0.233 C 
HETATM   12  N   UNL     1       2.513   8.004  24.578  0.00  0.00    -0.351 N 
HETATM   13  C   UNL     1       2.474   7.216  23.351  0.00  0.00     0.153 C 
HETATM   14  O   UNL     1       3.398   9.731  25.819  0.00  0.00    -0.272 OA
BRANCH  12  15
HETATM   15  C   UNL     1       1.335   7.904  25.456  0.00  0.00     0.164 C 
BRANCH  15  16
HETATM   16  C   UNL     1       0.474   9.137  25.632  0.00  0.00    -0.040 A 
HETATM   17  C   UNL     1      -0.102   9.444  26.877  0.00  0.00     0.009 A 
HETATM   18  C   UNL     1      -1.117  10.406  26.981  0.00  0.00     0.001 A 
HETATM   19  C   UNL     1      -1.555  11.091  25.850  0.00  0.00     0.000 A 
HETATM   20  C   UNL     1      -0.946  10.848  24.622  0.00  0.00     0.001 A 
HETATM   21  C   UNL     1       0.067   9.886  24.514  0.00  0.00     0.009 A 
ENDBRANCH  15  16
ENDBRANCH  12  15
ENDBRANCH   1  11
BRANCH   3  22
HETATM   22  O   UNL     1       5.584   6.804  24.750  0.00  0.00    -0.364 OA
HETATM   23  H   UNL     1       4.626   6.686  24.899  0.00  0.00     0.217 HD
ENDBRANCH   3  22
BRANCH  10  24
HETATM   24  C   UNL     1       6.758  13.367  23.192  0.00  0.00     0.100 C 
BRANCH  24  25
HETATM   25  C   UNL     1       5.781  13.978  24.165  0.00  0.00    -0.052 A 
HETATM   26  C   UNL     1       6.238  14.559  25.353  0.00  0.00     0.007 A 
HETATM   27  C   UNL     1       5.332  15.050  26.293  0.00  0.00     0.001 A 
HETATM   28  C   UNL     1       3.961  14.963  26.058  0.00  0.00     0.007 A 
HETATM   29  C   UNL     1       3.481  14.396  24.872  0.00  0.00    -0.061 A 
HETATM   30  C   UNL     1       4.399  13.917  23.924  0.00  0.00     0.014 A 
HETATM   31  C   UNL     1       2.005  14.305  24.612  0.00  0.00     0.048 C 
ENDBRANCH  24  25
ENDBRANCH  10  24
TORSDOF 6
ENDMDL
MODEL 3
REMARK minimizedAffinity -9.68948841
REMARK minimizedRMSD -1
REMARK  6 active torsions:
REMARK  status: ('A' for Active; 'I' for Inactive)
REMARK    1  A    between atoms: C_6  and  C_7 
REMARK    2  A    between atoms: C_7  and  N_8 
REMARK       I    between atoms: N_8  and  C_10 
REMARK    3  A    between atoms: C_10  and  C_12 
REMARK    4  A    between atoms: C_14  and  O_15 
REMARK    5  A    between atoms: C_22  and  C_23 
REMARK    6  A    between atoms: C_23  and  C_24 
ROOT
HETATM    1  C   UNL     1       6.668  13.121  23.542  0.00  0.00     0.158 A 
HETATM    2  C   UNL     1       5.153  12.907  23.447  0.00  0.00     0.010 A 
HETATM    3  C   UNL     1       7.028  14.340  24.408  0.00  0.00     0.062 A 
HETATM    4  C   UNL     1       6.141  15.201  24.931  0.00  0.00     0.065 A 
HETATM    5  C   UNL     1       4.730  14.950  24.678  0.00  0.00     0.064 A 
HETATM    6  C   UNL     1       4.279  13.787  23.945  0.00  0.00     0.016 A 
HETATM    7  N   UNL     1       3.710  15.649  25.020  0.00  0.00    -0.277 N 
HETATM    8  H   UNL     1       3.722  16.535  25.526  0.00  0.00     0.189 HD
HETATM    9  N   UNL     1       2.435  15.084  24.592  0.00  0.00    -0.178 NA
HETATM   10  C   UNL     1       2.820  13.992  23.965  0.00  0.00     0.071 A 
ENDROOT
BRANCH   1  11
HETATM   11  C   UNL     1       7.374  11.832  24.068  0.00  0.00     0.233 C 
HETATM   12  N   UNL     1       7.527  10.753  23.193  0.00  0.00    -0.351 N 
HETATM   13  C   UNL     1       6.872  10.658  21.893  0.00  0.00     0.153 C 
HETATM   14  O   UNL     1       7.795  11.800  25.226  0.00  0.00    -0.272 OA
BRANCH  12  15
HETATM   15  C   UNL     1       8.223   9.543  23.663  0.00  0.00     0.164 C 
BRANCH  15  16
HETATM   16  C   UNL     1       7.382   8.339  24.036  0.00  0.00    -0.040 A 
HETATM   17  C   UNL     1       7.803   7.037  23.716  0.00  0.00     0.009 A 
HETATM   18  C   UNL     1       6.915   5.954  23.796  0.00  0.00     0.001 A 
HETATM   19  C   UNL     1       5.603   6.153  24.219  0.00  0.00     0.000 A 
HETATM   20  C   UNL     1       5.190   7.425  24.606  0.00  0.00     0.001 A 
HETATM   21  C   UNL     1       6.075   8.509  24.524  0.00  0.00     0.009 A 
ENDBRANCH  15  16
ENDBRANCH  12  15
ENDBRANCH   1  11
BRANCH   3  22
HETATM   22  O   UNL     1       8.371  14.613  24.616  0.00  0.00    -0.364 OA
HETATM   23  H   UNL     1       8.912  13.810  24.492  0.00  0.00     0.217 HD
ENDBRANCH   3  22
BRANCH  10  24
HETATM   24  C   UNL     1       1.838  13.083  23.259  0.00  0.00     0.100 C 
BRANCH  24  25
HETATM   25  C   UNL     1       1.548  11.859  24.091  0.00  0.00    -0.052 A 
HETATM   26  C   UNL     1       2.345  10.715  23.967  0.00  0.00     0.007 A 
HETATM   27  C   UNL     1       2.029   9.555  24.673  0.00  0.00     0.001 A 
HETATM   28  C   UNL     1       0.913   9.522  25.507  0.00  0.00     0.007 A 
HETATM   29  C   UNL     1       0.107  10.656  25.655  0.00  0.00    -0.061 A 
HETATM   30  C   UNL     1       0.439  11.825  24.952  0.00  0.00     0.014 A 
HETATM   31  C   UNL     1      -1.094  10.628  26.555  0.00  0.00     0.048 C 
ENDBRANCH  24  25
ENDBRANCH  10  24
TORSDOF 6
ENDMDL
MODEL 4
REMARK minimizedAffinity -9.66746426
REMARK minimizedRMSD -1
REMARK  6 active torsions:
REMARK  status: ('A' for Active; 'I' for Inactive)
REMARK    1  A    between atoms: C_6  and  C_7 
REMARK    2  A    between atoms: C_7  and  N_8 
REMARK       I    between atoms: N_8  and  C_10 
REMARK    3  A    between atoms: C_10  and  C_12 
REMARK    4  A    between atoms: C_14  and  O_15 
REMARK    5  A    between atoms: C_22  and  C_23 
REMARK    6  A    between atoms: C_23  and  C_24 
ROOT
HETATM    1  C   UNL     1       2.829  12.372  25.041  0.00  0.00     0.158 A 
HETATM    2  C   UNL     1       4.355  12.360  24.905  0.00  0.00     0.010 A 
HETATM    3  C   UNL     1       2.219  13.724  24.630  0.00  0.00     0.062 A 
HETATM    4  C   UNL     1       2.926  14.817  24.301  0.00  0.00     0.065 A 
HETATM    5  C   UNL     1       4.377  14.710  24.315  0.00  0.00     0.064 A 
HETATM    6  C   UNL     1       5.050  13.463  24.608  0.00  0.00     0.016 A 
HETATM    7  N   UNL     1       5.257  15.617  24.096  0.00  0.00    -0.277 N 
HETATM    8  H   UNL     1       5.078  16.600  23.886  0.00  0.00     0.189 HD
HETATM    9  N   UNL     1       6.633  15.143  24.194  0.00  0.00    -0.178 NA
HETATM   10  C   UNL     1       6.460  13.873  24.497  0.00  0.00     0.071 A 
ENDROOT
BRANCH   1  11
HETATM   11  C   UNL     1       2.195  11.201  24.227  0.00  0.00     0.233 C 
HETATM   12  N   UNL     1       2.075   9.951  24.840  0.00  0.00    -0.351 N 
HETATM   13  C   UNL     1       2.708   9.601  26.108  0.00  0.00     0.153 C 
HETATM   14  O   UNL     1       1.798  11.406  23.077  0.00  0.00    -0.272 OA
BRANCH  12  15
HETATM   15  C   UNL     1       1.447   8.845  24.098  0.00  0.00     0.164 C 
BRANCH  15  16
HETATM   16  C   UNL     1       2.353   7.813  23.460  0.00  0.00    -0.040 A 
HETATM   17  C   UNL     1       3.633   8.164  22.995  0.00  0.00     0.009 A 
HETATM   18  C   UNL     1       4.355   7.302  22.158  0.00  0.00     0.001 A 
HETATM   19  C   UNL     1       3.822   6.068  21.792  0.00  0.00     0.000 A 
HETATM   20  C   UNL     1       2.586   5.676  22.300  0.00  0.00     0.001 A 
HETATM   21  C   UNL     1       1.861   6.537  23.136  0.00  0.00     0.009 A 
ENDBRANCH  15  16
ENDBRANCH  12  15
ENDBRANCH   1  11
BRANCH   3  22
HETATM   22  O   UNL     1       0.839  13.848  24.658  0.00  0.00    -0.364 OA
HETATM   23  H   UNL     1       0.411  12.974  24.588  0.00  0.00     0.217 HD
ENDBRANCH   3  22
BRANCH  10  24
HETATM   24  C   UNL     1       7.625  12.951  24.785  0.00  0.00     0.100 C 
BRANCH  24  25
HETATM   25  C   UNL     1       7.579  11.736  23.893  0.00  0.00    -0.052 A 
HETATM   26  C   UNL     1       7.156  11.850  22.564  0.00  0.00     0.007 A 
HETATM   27  C   UNL     1       7.033  10.716  21.762  0.00  0.00     0.001 A 
HETATM   28  C   UNL     1       7.329   9.456  22.278  0.00  0.00     0.007 A 
HETATM   29  C   UNL     1       7.764   9.318  23.601  0.00  0.00    -0.061 A 
HETATM   30  C   UNL     1       7.899  10.465  24.398  0.00  0.00     0.014 A 
HETATM   31  C   UNL     1       8.089   7.963  24.160  0.00  0.00     0.048 C 
ENDBRANCH  24  25
ENDBRANCH  10  24
TORSDOF 6
ENDMDL
MODEL 5
REMARK minimizedAffinity -9.61076164
REMARK minimizedRMSD -1
REMARK  6 active torsions:
REMARK  status: ('A' for Active; 'I' for Inactive)
REMARK    1  A    between atoms: C_6  and  C_7 
REMARK    2  A    between atoms: C_7  and  N_8 
REMARK       I    between atoms: N_8  and  C_10 
REMARK    3  A    between atoms: C_10  and  C_12 
REMARK    4  A    between atoms: C_14  and  O_15 
REMARK    5  A    between atoms: C_22  and  C_23 
REMARK    6  A    between atoms: C_23  and  C_24 
ROOT
HETATM    1  C   UNL     1       6.094  10.081  22.395  0.00  0.00     0.158 A 
HETATM    2  C   UNL     1       6.099  11.556  22.813  0.00  0.00     0.010 A 
HETATM    3  C   UNL     1       7.055   9.234  23.247  0.00  0.00     0.062 A 
HETATM    4  C   UNL     1       7.896   9.722  24.172  0.00  0.00     0.065 A 
HETATM    5  C   UNL     1       7.884  11.159  24.402  0.00  0.00     0.064 A 
HETATM    6  C   UNL     1       6.962  12.036  23.713  0.00  0.00     0.016 A 
HETATM    7  N   UNL     1       8.622  11.860  25.182  0.00  0.00    -0.277 N 
HETATM    8  H   UNL     1       9.377  11.515  25.776  0.00  0.00     0.189 HD
HETATM    9  N   UNL     1       8.324  13.287  25.156  0.00  0.00    -0.178 NA
HETATM   10  C   UNL     1       7.343  13.342  24.279  0.00  0.00     0.071 A 
ENDROOT
BRANCH   1  11
HETATM   11  C   UNL     1       4.646   9.501  22.440  0.00  0.00     0.233 C 
HETATM   12  N   UNL     1       3.948   9.542  23.650  0.00  0.00    -0.351 N 
HETATM   13  C   UNL     1       4.558   9.882  24.931  0.00  0.00     0.153 C 
HETATM   14  O   UNL     1       4.145   9.039  21.412  0.00  0.00    -0.272 OA
BRANCH  12  15
HETATM   15  C   UNL     1       2.568   9.032  23.700  0.00  0.00     0.164 C 
BRANCH  15  16
HETATM   16  C   UNL     1       1.604   9.685  24.670  0.00  0.00    -0.040 A 
HETATM   17  C   UNL     1       1.252   9.051  25.874  0.00  0.00     0.009 A 
HETATM   18  C   UNL     1       0.161   9.502  26.631  0.00  0.00     0.001 A 
HETATM   19  C   UNL     1      -0.579  10.604  26.210  0.00  0.00     0.000 A 
HETATM   20  C   UNL     1      -0.201  11.284  25.055  0.00  0.00     0.001 A 
HETATM   21  C   UNL     1       0.888  10.835  24.296  0.00  0.00     0.009 A 
ENDBRANCH  15  16
ENDBRANCH  12  15
ENDBRANCH   1  11
BRANCH   3  22
HETATM   22  O   UNL     1       7.106   7.870  23.004  0.00  0.00    -0.364 OA
HETATM   23  H   UNL     1       6.283   7.562  22.579  0.00  0.00     0.217 HD
ENDBRANCH   3  22
BRANCH  10  24
HETATM   24  C   UNL     1       6.729  14.654  23.841  0.00  0.00     0.100 C 
BRANCH  24  25
HETATM   25  C   UNL     1       5.414  14.890  24.538  0.00  0.00    -0.052 A 
HETATM   26  C   UNL     1       5.387  15.382  25.848  0.00  0.00     0.007 A 
HETATM   27  C   UNL     1       4.176  15.522  26.526  0.00  0.00     0.001 A 
HETATM   28  C   UNL     1       2.979  15.169  25.904  0.00  0.00     0.007 A 
HETATM   29  C   UNL     1       2.980  14.685  24.591  0.00  0.00    -0.061 A 
HETATM   30  C   UNL     1       4.201  14.560  23.911  0.00  0.00     0.014 A 
HETATM   31  C   UNL     1       1.693  14.307  23.916  0.00  0.00     0.048 C 
ENDBRANCH  24  25
ENDBRANCH  10  24
TORSDOF 6
ENDMDL
MODEL 6
REMARK minimizedAffinity -9.57825375
REMARK minimizedRMSD -1
REMARK  6 active torsions:
REMARK  status: ('A' for Active; 'I' for Inactive)
REMARK    1  A    between atoms: C_6  and  C_7 
REMARK    2  A    between atoms: C_7  and  N_8 
REMARK       I    between atoms: N_8  and  C_10 
REMARK    3  A    between atoms: C_10  and  C_12 
REMARK    4  A    between atoms: C_14  and  O_15 
REMARK    5  A    between atoms: C_22  and  C_23 
REMARK    6  A    between atoms: C_23  and  C_24 
ROOT
HETATM    1  C   UNL     1       5.549   9.983  23.627  0.00  0.00     0.158 A 
HETATM    2  C   UNL     1       4.384   9.551  24.524  0.00  0.00     0.010 A 
HETATM    3  C   UNL     1       5.464   9.359  22.223  0.00  0.00     0.062 A 
HETATM    4  C   UNL     1       4.554   8.450  21.841  0.00  0.00     0.065 A 
HETATM    5  C   UNL     1       3.561   8.037  22.821  0.00  0.00     0.064 A 
HETATM    6  C   UNL     1       3.502   8.622  24.143  0.00  0.00     0.016 A 
HETATM    7  N   UNL     1       2.636   7.155  22.714  0.00  0.00    -0.277 N 
HETATM    8  H   UNL     1       2.450   6.565  21.902  0.00  0.00     0.189 HD
HETATM    9  N   UNL     1       1.816   7.008  23.911  0.00  0.00    -0.178 NA
HETATM   10  C   UNL     1       2.363   7.889  24.723  0.00  0.00     0.071 A 
ENDROOT
BRANCH   1  11
HETATM   11  C   UNL     1       5.633  11.539  23.544  0.00  0.00     0.233 C 
HETATM   12  N   UNL     1       6.870  12.153  23.765  0.00  0.00    -0.351 N 
HETATM   13  C   UNL     1       8.041  11.460  24.291  0.00  0.00     0.153 C 
HETATM   14  O   UNL     1       4.621  12.188  23.270  0.00  0.00    -0.272 OA
BRANCH  12  15
HETATM   15  C   UNL     1       6.973  13.618  23.654  0.00  0.00     0.164 C 
BRANCH  15  16
HETATM   16  C   UNL     1       6.203  14.460  24.650  0.00  0.00    -0.040 A 
HETATM   17  C   UNL     1       6.358  14.265  26.034  0.00  0.00     0.009 A 
HETATM   18  C   UNL     1       5.454  14.830  26.945  0.00  0.00     0.001 A 
HETATM   19  C   UNL     1       4.397  15.615  26.491  0.00  0.00     0.000 A 
HETATM   20  C   UNL     1       4.270  15.875  25.128  0.00  0.00     0.001 A 
HETATM   21  C   UNL     1       5.172  15.310  24.215  0.00  0.00     0.009 A 
ENDBRANCH  15  16
ENDBRANCH  12  15
ENDBRANCH   1  11
BRANCH   3  22
HETATM   22  O   UNL     1       6.433   9.712  21.297  0.00  0.00    -0.364 OA
HETATM   23  H   UNL     1       6.836  10.571  21.526  0.00  0.00     0.217 HD
ENDBRANCH   3  22
BRANCH  10  24
HETATM   24  C   UNL     1       1.900   8.059  26.154  0.00  0.00     0.100 C 
BRANCH  24  25
HETATM   25  C   UNL     1       0.798   9.084  26.241  0.00  0.00    -0.052 A 
HETATM   26  C   UNL     1      -0.058   9.109  27.348  0.00  0.00     0.007 A 
HETATM   27  C   UNL     1      -1.129  10.001  27.394  0.00  0.00     0.001 A 
HETATM   28  C   UNL     1      -1.358  10.876  26.333  0.00  0.00     0.007 A 
HETATM   29  C   UNL     1      -0.510  10.877  25.221  0.00  0.00    -0.061 A 
HETATM   30  C   UNL     1       0.574   9.987  25.188  0.00  0.00     0.014 A 
HETATM   31  C   UNL     1      -0.751  11.821  24.078  0.00  0.00     0.048 C 
ENDBRANCH  24  25
ENDBRANCH  10  24
TORSDOF 6
ENDMDL
MODEL 7
REMARK minimizedAffinity -9.52259064
REMARK minimizedRMSD -1
REMARK  6 active torsions:
REMARK  status: ('A' for Active; 'I' for Inactive)
REMARK    1  A    between atoms: C_6  and  C_7 
REMARK    2  A    between atoms: C_7  and  N_8 
REMARK       I    between atoms: N_8  and  C_10 
REMARK    3  A    between atoms: C_10  and  C_12 
REMARK    4  A    between atoms: C_14  and  O_15 
REMARK    5  A    between atoms: C_22  and  C_23 
REMARK    6  A    between atoms: C_23  and  C_24 
ROOT
HETATM    1  C   UNL     1       4.406   9.439  24.051  0.00  0.00     0.158 A 
HETATM    2  C   UNL     1       5.027  10.829  23.879  0.00  0.00     0.010 A 
HETATM    3  C   UNL     1       5.430   8.403  24.547  0.00  0.00     0.062 A 
HETATM    4  C   UNL     1       6.743   8.635  24.705  0.00  0.00     0.065 A 
HETATM    5  C   UNL     1       7.232   9.972  24.403  0.00  0.00     0.064 A 
HETATM    6  C   UNL     1       6.340  11.041  24.008  0.00  0.00     0.016 A 
HETATM    7  N   UNL     1       8.434  10.418  24.422  0.00  0.00    -0.277 N 
HETATM    8  H   UNL     1       9.276   9.885  24.642  0.00  0.00     0.189 HD
HETATM    9  N   UNL     1       8.550  11.826  24.061  0.00  0.00    -0.178 NA
HETATM   10  C   UNL     1       7.295  12.148  23.825  0.00  0.00     0.071 A 
ENDROOT
BRANCH   1  11
HETATM   11  C   UNL     1       3.169   9.502  25.000  0.00  0.00     0.233 C 
HETATM   12  N   UNL     1       2.136   8.579  24.811  0.00  0.00    -0.351 N 
HETATM   13  C   UNL     1       2.026   7.707  23.647  0.00  0.00     0.153 C 
HETATM   14  O   UNL     1       3.137  10.344  25.901  0.00  0.00    -0.272 OA
BRANCH  12  15
HETATM   15  C   UNL     1       0.978   8.603  25.721  0.00  0.00     0.164 C 
BRANCH  15  16
HETATM   16  C   UNL     1       1.126   7.938  27.075  0.00  0.00    -0.040 A 
HETATM   17  C   UNL     1       0.185   8.160  28.095  0.00  0.00     0.009 A 
HETATM   18  C   UNL     1       0.458   7.789  29.419  0.00  0.00     0.001 A 
HETATM   19  C   UNL     1       1.664   7.170  29.739  0.00  0.00     0.000 A 
HETATM   20  C   UNL     1       2.578   6.881  28.729  0.00  0.00     0.001 A 
HETATM   21  C   UNL     1       2.307   7.253  27.405  0.00  0.00     0.009 A 
ENDBRANCH  15  16
ENDBRANCH  12  15
ENDBRANCH   1  11
BRANCH   3  22
HETATM   22  O   UNL     1       4.982   7.115  24.794  0.00  0.00    -0.364 OA
HETATM   23  H   UNL     1       4.022   7.108  24.966  0.00  0.00     0.217 HD
ENDBRANCH   3  22
BRANCH  10  24
HETATM   24  C   UNL     1       6.898  13.522  23.330  0.00  0.00     0.100 C 
BRANCH  24  25
HETATM   25  C   UNL     1       5.863  14.139  24.234  0.00  0.00    -0.052 A 
HETATM   26  C   UNL     1       6.241  14.717  25.452  0.00  0.00     0.007 A 
HETATM   27  C   UNL     1       5.278  15.214  26.329  0.00  0.00     0.001 A 
HETATM   28  C   UNL     1       3.925  15.137  26.001  0.00  0.00     0.007 A 
HETATM   29  C   UNL     1       3.522  14.574  24.785  0.00  0.00    -0.061 A 
HETATM   30  C   UNL     1       4.499  14.088  23.901  0.00  0.00     0.014 A 
HETATM   31  C   UNL     1       2.067  14.492  24.426  0.00  0.00     0.048 C 
ENDBRANCH  24  25
ENDBRANCH  10  24
TORSDOF 6
ENDMDL
MODEL 8
REMARK minimizedAffinity -9.3334446
REMARK minimizedRMSD -1
REMARK  6 active torsions:
REMARK  status: ('A' for Active; 'I' for Inactive)
REMARK    1  A    between atoms: C_6  and  C_7 
REMARK    2  A    between atoms: C_7  and  N_8 
REMARK       I    between atoms: N_8  and  C_10 
REMARK    3  A    between atoms: C_10  and  C_12 
REMARK    4  A    between atoms: C_14  and  O_15 
REMARK    5  A    between atoms: C_22  and  C_23 
REMARK    6  A    between atoms: C_23  and  C_24 
ROOT
HETATM    1  C   UNL     1       3.357   8.534  23.958  0.00  0.00     0.158 A 
HETATM    2  C   UNL     1       4.424   9.582  24.291  0.00  0.00     0.010 A 
HETATM    3  C   UNL     1       3.583   7.894  22.577  0.00  0.00     0.062 A 
HETATM    4  C   UNL     1       4.524   8.273  21.699  0.00  0.00     0.065 A 
HETATM    5  C   UNL     1       5.411   9.358  22.090  0.00  0.00     0.064 A 
HETATM    6  C   UNL     1       5.337   9.974  23.397  0.00  0.00     0.016 A 
HETATM    7  N   UNL     1       6.340   9.928  21.413  0.00  0.00    -0.277 N 
HETATM    8  H   UNL     1       6.606   9.719  20.450  0.00  0.00     0.189 HD
HETATM    9  N   UNL     1       7.034  10.989  22.135  0.00  0.00    -0.178 NA
HETATM   10  C   UNL     1       6.409  10.979  23.294  0.00  0.00     0.071 A 
ENDROOT
BRANCH   1  11
HETATM   11  C   UNL     1       3.286   7.446  25.075  0.00  0.00     0.233 C 
HETATM   12  N   UNL     1       2.028   7.031  25.522  0.00  0.00    -0.351 N 
HETATM   13  C   UNL     1       0.779   7.703  25.181  0.00  0.00     0.153 C 
HETATM   14  O   UNL     1       4.330   6.967  25.522  0.00  0.00    -0.272 OA
BRANCH  12  15
HETATM   15  C   UNL     1       1.944   5.979  26.549  0.00  0.00     0.164 C 
BRANCH  15  16
HETATM   16  C   UNL     1       1.759   6.409  27.991  0.00  0.00    -0.040 A 
HETATM   17  C   UNL     1       0.477   6.648  28.514  0.00  0.00     0.009 A 
HETATM   18  C   UNL     1       0.312   7.311  29.738  0.00  0.00     0.001 A 
HETATM   19  C   UNL     1       1.425   7.725  30.468  0.00  0.00     0.000 A 
HETATM   20  C   UNL     1       2.702   7.434  29.996  0.00  0.00     0.001 A 
HETATM   21  C   UNL     1       2.869   6.773  28.772  0.00  0.00     0.009 A 
ENDBRANCH  15  16
ENDBRANCH  12  15
ENDBRANCH   1  11
BRANCH   3  22
HETATM   22  O   UNL     1       2.714   6.890  22.178  0.00  0.00    -0.364 OA
HETATM   23  H   UNL     1       2.292   6.468  22.950  0.00  0.00     0.217 HD
ENDBRANCH   3  22
BRANCH  10  24
HETATM   24  C   UNL     1       6.725  11.980  24.385  0.00  0.00     0.100 C 
BRANCH  24  25
HETATM   25  C   UNL     1       5.806  13.172  24.301  0.00  0.00    -0.052 A 
HETATM   26  C   UNL     1       6.303  14.464  24.509  0.00  0.00     0.007 A 
HETATM   27  C   UNL     1       5.441  15.560  24.515  0.00  0.00     0.001 A 
HETATM   28  C   UNL     1       4.073  15.378  24.317  0.00  0.00     0.007 A 
HETATM   29  C   UNL     1       3.555  14.098  24.095  0.00  0.00    -0.061 A 
HETATM   30  C   UNL     1       4.430  13.001  24.076  0.00  0.00     0.014 A 
HETATM   31  C   UNL     1       2.083  13.897  23.876  0.00  0.00     0.048 C 
ENDBRANCH  24  25
ENDBRANCH  10  24
TORSDOF 6
ENDMDL
MODEL 9
REMARK minimizedAffinity -9.32769108
REMARK minimizedRMSD -1
REMARK  6 active torsions:
REMARK  status: ('A' for Active; 'I' for Inactive)
REMARK    1  A    between atoms: C_6  and  C_7 
REMARK    2  A    between atoms: C_7  and  N_8 
REMARK       I    between atoms: N_8  and  C_10 
REMARK    3  A    between atoms: C_10  and  C_12 
REMARK    4  A    between atoms: C_14  and  O_15 
REMARK    5  A    between atoms: C_22  and  C_23 
REMARK    6  A    between atoms: C_23  and  C_24 
ROOT
HETATM    1  C   UNL     1       3.236   8.705  24.463  0.00  0.00     0.158 A 
HETATM    2  C   UNL     1       2.187   8.842  25.572  0.00  0.00     0.010 A 
HETATM    3  C   UNL     1       2.859   7.622  23.437  0.00  0.00     0.062 A 
HETATM    4  C   UNL     1       1.803   6.800  23.541  0.00  0.00     0.065 A 
HETATM    5  C   UNL     1       0.939   6.957  24.701  0.00  0.00     0.064 A 
HETATM    6  C   UNL     1       1.157   7.997  25.683  0.00  0.00     0.016 A 
HETATM    7  N   UNL     1      -0.085   6.265  25.047  0.00  0.00    -0.277 N 
HETATM    8  H   UNL     1      -0.463   5.453  24.558  0.00  0.00     0.189 HD
HETATM    9  N   UNL     1      -0.715   6.718  26.282  0.00  0.00    -0.178 NA
HETATM   10  C   UNL     1       0.050   7.735  26.619  0.00  0.00     0.071 A 
ENDROOT
BRANCH   1  11
HETATM   11  C   UNL     1       3.480  10.079  23.764  0.00  0.00     0.233 C 
HETATM   12  N   UNL     1       4.781  10.590  23.735  0.00  0.00    -0.351 N 
HETATM   13  C   UNL     1       5.890  10.042  24.509  0.00  0.00     0.153 C 
HETATM   14  O   UNL     1       2.533  10.669  23.239  0.00  0.00    -0.272 OA
BRANCH  12  15
HETATM   15  C   UNL     1       5.034  11.867  23.047  0.00  0.00     0.164 C 
BRANCH  15  16
HETATM   16  C   UNL     1       4.858  13.146  23.839  0.00  0.00    -0.040 A 
HETATM   17  C   UNL     1       3.600  13.766  23.941  0.00  0.00     0.009 A 
HETATM   18  C   UNL     1       3.482  15.078  24.420  0.00  0.00     0.001 A 
HETATM   19  C   UNL     1       4.614  15.782  24.826  0.00  0.00     0.000 A 
HETATM   20  C   UNL     1       5.858  15.158  24.797  0.00  0.00     0.001 A 
HETATM   21  C   UNL     1       5.979  13.847  24.316  0.00  0.00     0.009 A 
ENDBRANCH  15  16
ENDBRANCH  12  15
ENDBRANCH   1  11
BRANCH   3  22
HETATM   22  O   UNL     1       3.702   7.434  22.353  0.00  0.00    -0.364 OA
HETATM   23  H   UNL     1       4.230   8.237  22.181  0.00  0.00     0.217 HD
ENDBRANCH   3  22
BRANCH  10  24
HETATM   24  C   UNL     1      -0.158   8.505  27.905  0.00  0.00     0.100 C 
BRANCH  24  25
HETATM   25  C   UNL     1       0.729   7.970  28.999  0.00  0.00    -0.052 A 
HETATM   26  C   UNL     1       2.078   7.696  28.746  0.00  0.00     0.007 A 
HETATM   27  C   UNL     1       2.880   7.122  29.732  0.00  0.00     0.001 A 
HETATM   28  C   UNL     1       2.343   6.813  30.981  0.00  0.00     0.007 A 
HETATM   29  C   UNL     1       1.000   7.087  31.261  0.00  0.00    -0.061 A 
HETATM   30  C   UNL     1       0.203   7.678  30.269  0.00  0.00     0.014 A 
HETATM   31  C   UNL     1       0.419   6.760  32.606  0.00  0.00     0.048 C 
ENDBRANCH  24  25
ENDBRANCH  10  24
TORSDOF 6
ENDMDL
