MODEL 1
REMARK VINA RESULT:    -8.128      0.000      0.000
REMARK INTER + INTRA:         -11.636
REMARK INTER:                 -10.231
REMARK INTRA:                  -1.405
REMARK UNBOUND:                -0.658
REMARK  7 active torsions:
REMARK  status: ('A' for Active; 'I' for Inactive)
REMARK    1  A    between atoms: O_2  and  C_3 
REMARK    2  A    between atoms: C_6  and  C_9 
REMARK    3  A    between atoms: C_10  and  C_11 
REMARK       I    between atoms: C_11  and  N_13 
REMARK    4  A    between atoms: N_13  and  C_14 
REMARK    5  A    between atoms: C_18  and  C_19 
REMARK    6  A    between atoms: C_23  and  O_24 
REMARK    7  A    between atoms: C_26  and  O_27 
ROOT
HETATM    1  C   UNL     1      -0.993  12.263  22.206  0.00  0.00     0.048 A 
HETATM    2  C   UNL     1      -2.276  12.450  21.565  0.00  0.00     0.165 A 
HETATM    3  N   UNL     1      -3.070  11.387  21.784  0.00  0.00    -0.121 NA
HETATM    4  O   UNL     1      -2.377  10.546  22.593  0.00  0.00    -0.211 OA
HETATM    5  C   UNL     1      -1.137  11.035  22.862  0.00  0.00     0.128 A 
ENDROOT
BRANCH   5   6
HETATM    6  C   UNL     1      -0.398  10.169  23.802  0.00  0.00     0.036 A 
HETATM    7  C   UNL     1       0.733   9.439  23.399  0.00  0.00     0.044 A 
HETATM    8  C   UNL     1       1.459   8.669  24.314  0.00  0.00     0.068 A 
HETATM    9 CL   UNL     1       2.781   7.710  23.760  0.00  0.00    -0.081 Cl
HETATM   10  C   UNL     1       1.115   8.676  25.664  0.00  0.00     0.090 A 
HETATM   11  C   UNL     1       0.012   9.393  26.099  0.00  0.00     0.075 A 
HETATM   12  C   UNL     1      -0.752  10.103  25.170  0.00  0.00     0.081 A 
BRANCH  10  13
HETATM   13  O   UNL     1       1.834   7.999  26.609  0.00  0.00    -0.359 OA
HETATM   14  H   UNL     1       2.771   8.246  26.499  0.00  0.00     0.217 HD
ENDBRANCH  10  13
BRANCH  12  15
HETATM   15  O   UNL     1      -1.880  10.741  25.615  0.00  0.00    -0.360 OA
HETATM   16  H   UNL     1      -2.110  11.466  25.012  0.00  0.00     0.217 HD
ENDBRANCH  12  15
ENDBRANCH   5   6
BRANCH   1  17
HETATM   17  C   UNL     1       0.183  13.127  22.350  0.00  0.00    -0.020 C 
HETATM   18  C   UNL     1       0.653  13.528  23.607  0.00  0.00     0.015 C 
HETATM   19  C   UNL     1       1.948  14.053  23.753  0.00  0.00     0.037 C 
HETATM   20  C   UNL     1       2.797  14.146  22.654  0.00  0.00     0.068 C 
HETATM   21  C   UNL     1       2.283  13.910  21.383  0.00  0.00     0.037 C 
HETATM   22  C   UNL     1       0.971  13.445  21.231  0.00  0.00     0.015 C 
BRANCH  20  23
HETATM   23  O   UNL     1       4.097  14.494  22.891  0.00  0.00    -0.356 OA
HETATM   24  C   UNL     1       4.883  14.599  21.701  0.00  0.00     0.210 C 
ENDBRANCH  20  23
ENDBRANCH   1  17
BRANCH   2  25
HETATM   25  C   UNL     1      -2.851  13.542  20.764  0.00  0.00     0.273 C 
HETATM   26  O   UNL     1      -2.326  14.637  20.607  0.00  0.00    -0.266 OA
HETATM   27  N   UNL     1      -4.070  13.202  20.194  0.00  0.00    -0.356 N 
HETATM   28  H   UNL     1      -4.338  12.217  20.297  0.00  0.00     0.162 HD
BRANCH  27  29
HETATM   29  C   UNL     1      -4.817  14.053  19.299  0.00  0.00     0.118 C 
HETATM   30  C   UNL     1      -5.872  13.275  18.528  0.00  0.00     0.026 C 
ENDBRANCH  27  29
ENDBRANCH   2  25
TORSDOF 7
ENDMDL
MODEL 2
REMARK VINA RESULT:    -8.060      3.450      6.883
REMARK INTER + INTRA:         -11.546
REMARK INTER:                 -10.294
REMARK INTRA:                  -1.251
REMARK UNBOUND:                -0.658
REMARK  7 active torsions:
REMARK  status: ('A' for Active; 'I' for Inactive)
REMARK    1  A    between atoms: O_2  and  C_3 
REMARK    2  A    between atoms: C_6  and  C_9 
REMARK    3  A    between atoms: C_10  and  C_11 
REMARK       I    between atoms: C_11  and  N_13 
REMARK    4  A    between atoms: N_13  and  C_14 
REMARK    5  A    between atoms: C_18  and  C_19 
REMARK    6  A    between atoms: C_23  and  O_24 
REMARK    7  A    between atoms: C_26  and  O_27 
ROOT
HETATM    1  C   UNL     1       0.415  14.814  21.556  0.00  0.00     0.048 A 
HETATM    2  C   UNL     1       1.299  15.927  21.288  0.00  0.00     0.165 A 
HETATM    3  N   UNL     1       0.610  16.965  20.784  0.00  0.00    -0.121 NA
HETATM    4  O   UNL     1      -0.695  16.593  20.772  0.00  0.00    -0.211 OA
HETATM    5  C   UNL     1      -0.847  15.319  21.223  0.00  0.00     0.128 A 
ENDROOT
BRANCH   5   6
HETATM    6  C   UNL     1      -2.269  14.926  21.287  0.00  0.00     0.036 A 
HETATM    7  C   UNL     1      -3.031  14.719  20.125  0.00  0.00     0.044 A 
HETATM    8  C   UNL     1      -4.360  14.289  20.200  0.00  0.00     0.068 A 
HETATM    9 CL   UNL     1      -5.290  14.141  18.755  0.00  0.00    -0.081 Cl
HETATM   10  C   UNL     1      -4.928  13.982  21.435  0.00  0.00     0.090 A 
HETATM   11  C   UNL     1      -4.203  14.164  22.601  0.00  0.00     0.075 A 
HETATM   12  C   UNL     1      -2.900  14.661  22.526  0.00  0.00     0.081 A 
BRANCH  10  13
HETATM   13  O   UNL     1      -6.198  13.491  21.557  0.00  0.00    -0.359 OA
HETATM   14  H   UNL     1      -6.453  13.116  20.693  0.00  0.00     0.217 HD
ENDBRANCH  10  13
BRANCH  12  15
HETATM   15  O   UNL     1      -2.233  14.904  23.698  0.00  0.00    -0.360 OA
HETATM   16  H   UNL     1      -2.841  14.811  24.449  0.00  0.00     0.217 HD
ENDBRANCH  12  15
ENDBRANCH   5   6
BRANCH   1  17
HETATM   17  C   UNL     1       0.626  13.500  22.172  0.00  0.00    -0.020 C 
HETATM   18  C   UNL     1       1.178  13.365  23.451  0.00  0.00     0.015 C 
HETATM   19  C   UNL     1       1.059  12.158  24.159  0.00  0.00     0.037 C 
HETATM   20  C   UNL     1       0.356  11.088  23.612  0.00  0.00     0.068 C 
HETATM   21  C   UNL     1      -0.047  11.156  22.282  0.00  0.00     0.037 C 
HETATM   22  C   UNL     1       0.127  12.340  21.555  0.00  0.00     0.015 C 
BRANCH  20  23
HETATM   23  O   UNL     1       0.122  10.010  24.418  0.00  0.00    -0.356 OA
HETATM   24  C   UNL     1      -1.265   9.791  24.687  0.00  0.00     0.210 C 
ENDBRANCH  20  23
ENDBRANCH   1  17
BRANCH   2  25
HETATM   25  C   UNL     1       2.746  16.128  21.468  0.00  0.00     0.273 C 
HETATM   26  O   UNL     1       3.252  17.142  21.933  0.00  0.00    -0.266 OA
HETATM   27  N   UNL     1       3.493  15.035  21.050  0.00  0.00    -0.356 N 
HETATM   28  H   UNL     1       2.945  14.205  20.800  0.00  0.00     0.162 HD
BRANCH  27  29
HETATM   29  C   UNL     1       4.927  14.930  21.182  0.00  0.00     0.118 C 
HETATM   30  C   UNL     1       5.340  14.596  22.607  0.00  0.00     0.026 C 
ENDBRANCH  27  29
ENDBRANCH   2  25
TORSDOF 7
ENDMDL
MODEL 3
REMARK VINA RESULT:    -7.971      3.525      6.251
REMARK INTER + INTRA:         -11.425
REMARK INTER:                  -9.958
REMARK INTRA:                  -1.468
REMARK UNBOUND:                -0.658
REMARK  7 active torsions:
REMARK  status: ('A' for Active; 'I' for Inactive)
REMARK    1  A    between atoms: O_2  and  C_3 
REMARK    2  A    between atoms: C_6  and  C_9 
REMARK    3  A    between atoms: C_10  and  C_11 
REMARK       I    between atoms: C_11  and  N_13 
REMARK    4  A    between atoms: N_13  and  C_14 
REMARK    5  A    between atoms: C_18  and  C_19 
REMARK    6  A    between atoms: C_23  and  O_24 
REMARK    7  A    between atoms: C_26  and  O_27 
ROOT
HETATM    1  C   UNL     1      -0.424  13.569  22.743  0.00  0.00     0.048 A 
HETATM    2  C   UNL     1       1.017  13.451  22.743  0.00  0.00     0.165 A 
HETATM    3  N   UNL     1       1.450  12.962  23.919  0.00  0.00    -0.121 NA
HETATM    4  O   UNL     1       0.344  12.700  24.659  0.00  0.00    -0.211 OA
HETATM    5  C   UNL     1      -0.789  13.050  23.991  0.00  0.00     0.128 A 
ENDROOT
BRANCH   5   6
HETATM    6  C   UNL     1      -2.004  12.700  24.752  0.00  0.00     0.036 A 
HETATM    7  C   UNL     1      -2.978  11.832  24.228  0.00  0.00     0.044 A 
HETATM    8  C   UNL     1      -4.096  11.462  24.984  0.00  0.00     0.068 A 
HETATM    9 CL   UNL     1      -5.316  10.475  24.270  0.00  0.00    -0.081 Cl
HETATM   10  C   UNL     1      -4.222  11.889  26.304  0.00  0.00     0.090 A 
HETATM   11  C   UNL     1      -3.276  12.737  26.856  0.00  0.00     0.075 A 
HETATM   12  C   UNL     1      -2.198  13.161  26.075  0.00  0.00     0.081 A 
BRANCH  10  13
HETATM   13  O   UNL     1      -5.257  11.498  27.106  0.00  0.00    -0.359 OA
HETATM   14  H   UNL     1      -4.944  11.537  28.030  0.00  0.00     0.217 HD
ENDBRANCH  10  13
BRANCH  12  15
HETATM   15  O   UNL     1      -1.319  14.059  26.622  0.00  0.00    -0.360 OA
HETATM   16  H   UNL     1      -1.346  14.000  27.590  0.00  0.00     0.217 HD
ENDBRANCH  12  15
ENDBRANCH   5   6
BRANCH   1  17
HETATM   17  C   UNL     1      -1.392  13.958  21.712  0.00  0.00    -0.020 C 
HETATM   18  C   UNL     1      -2.027  13.009  20.902  0.00  0.00     0.015 C 
HETATM   19  C   UNL     1      -3.180  13.346  20.174  0.00  0.00     0.037 C 
HETATM   20  C   UNL     1      -3.730  14.620  20.278  0.00  0.00     0.068 C 
HETATM   21  C   UNL     1      -3.014  15.611  20.943  0.00  0.00     0.037 C 
HETATM   22  C   UNL     1      -1.830  15.289  21.618  0.00  0.00     0.015 C 
BRANCH  20  23
HETATM   23  O   UNL     1      -4.945  14.831  19.691  0.00  0.00    -0.356 OA
HETATM   24  C   UNL     1      -5.430  13.700  18.964  0.00  0.00     0.210 C 
ENDBRANCH  20  23
ENDBRANCH   1  17
BRANCH   2  25
HETATM   25  C   UNL     1       2.051  13.744  21.737  0.00  0.00     0.273 C 
HETATM   26  O   UNL     1       1.882  13.663  20.526  0.00  0.00    -0.266 OA
HETATM   27  N   UNL     1       3.258  14.127  22.306  0.00  0.00    -0.356 N 
HETATM   28  H   UNL     1       3.231  14.277  23.320  0.00  0.00     0.162 HD
BRANCH  27  29
HETATM   29  C   UNL     1       4.416  14.545  21.554  0.00  0.00     0.118 C 
HETATM   30  C   UNL     1       5.587  14.888  22.463  0.00  0.00     0.026 C 
ENDBRANCH  27  29
ENDBRANCH   2  25
TORSDOF 7
ENDMDL
MODEL 4
REMARK VINA RESULT:    -7.853      3.944      6.952
REMARK INTER + INTRA:         -11.266
REMARK INTER:                 -10.036
REMARK INTRA:                  -1.230
REMARK UNBOUND:                -0.658
REMARK  7 active torsions:
REMARK  status: ('A' for Active; 'I' for Inactive)
REMARK    1  A    between atoms: O_2  and  C_3 
REMARK    2  A    between atoms: C_6  and  C_9 
REMARK    3  A    between atoms: C_10  and  C_11 
REMARK       I    between atoms: C_11  and  N_13 
REMARK    4  A    between atoms: N_13  and  C_14 
REMARK    5  A    between atoms: C_18  and  C_19 
REMARK    6  A    between atoms: C_23  and  O_24 
REMARK    7  A    between atoms: C_26  and  O_27 
ROOT
HETATM    1  C   UNL     1      -0.861  14.431  24.756  0.00  0.00     0.048 A 
HETATM    2  C   UNL     1      -1.037  14.548  26.187  0.00  0.00     0.165 A 
HETATM    3  N   UNL     1      -0.032  15.260  26.728  0.00  0.00    -0.121 NA
HETATM    4  O   UNL     1       0.755  15.661  25.699  0.00  0.00    -0.211 OA
HETATM    5  C   UNL     1       0.293  15.185  24.511  0.00  0.00     0.128 A 
ENDROOT
BRANCH   5   6
HETATM    6  C   UNL     1       1.095  15.676  23.374  0.00  0.00     0.036 A 
HETATM    7  C   UNL     1       2.414  15.240  23.158  0.00  0.00     0.044 A 
HETATM    8  C   UNL     1       3.142  15.668  22.042  0.00  0.00     0.068 A 
HETATM    9 CL   UNL     1       4.789  15.189  21.866  0.00  0.00    -0.081 Cl
HETATM   10  C   UNL     1       2.540  16.476  21.080  0.00  0.00     0.090 A 
HETATM   11  C   UNL     1       1.237  16.916  21.255  0.00  0.00     0.075 A 
HETATM   12  C   UNL     1       0.538  16.544  22.405  0.00  0.00     0.081 A 
BRANCH  10  13
HETATM   13  O   UNL     1       3.183  16.862  19.938  0.00  0.00    -0.359 OA
HETATM   14  H   UNL     1       2.502  17.064  19.270  0.00  0.00     0.217 HD
ENDBRANCH  10  13
BRANCH  12  15
HETATM   15  O   UNL     1      -0.720  17.055  22.589  0.00  0.00    -0.360 OA
HETATM   16  H   UNL     1      -1.384  16.410  22.299  0.00  0.00     0.217 HD
ENDBRANCH  12  15
ENDBRANCH   5   6
BRANCH   1  17
HETATM   17  C   UNL     1      -1.687  13.845  23.695  0.00  0.00    -0.020 C 
HETATM   18  C   UNL     1      -3.057  14.113  23.596  0.00  0.00     0.015 C 
HETATM   19  C   UNL     1      -3.756  13.839  22.409  0.00  0.00     0.037 C 
HETATM   20  C   UNL     1      -3.086  13.330  21.300  0.00  0.00     0.068 C 
HETATM   21  C   UNL     1      -1.769  12.905  21.444  0.00  0.00     0.037 C 
HETATM   22  C   UNL     1      -1.089  13.123  22.649  0.00  0.00     0.015 C 
BRANCH  20  23
HETATM   23  O   UNL     1      -3.780  13.253  20.125  0.00  0.00    -0.356 OA
HETATM   24  C   UNL     1      -4.579  14.409  19.861  0.00  0.00     0.210 C 
ENDBRANCH  20  23
ENDBRANCH   1  17
BRANCH   2  25
HETATM   25  C   UNL     1      -2.070  14.065  27.116  0.00  0.00     0.273 C 
HETATM   26  O   UNL     1      -2.562  14.735  28.016  0.00  0.00    -0.266 OA
HETATM   27  N   UNL     1      -2.439  12.750  26.868  0.00  0.00    -0.356 N 
HETATM   28  H   UNL     1      -2.048  12.344  26.011  0.00  0.00     0.162 HD
BRANCH  27  29
HETATM   29  C   UNL     1      -3.484  12.050  27.576  0.00  0.00     0.118 C 
HETATM   30  C   UNL     1      -4.420  11.319  26.625  0.00  0.00     0.026 C 
ENDBRANCH  27  29
ENDBRANCH   2  25
TORSDOF 7
ENDMDL
MODEL 5
REMARK VINA RESULT:    -7.825      4.311      6.363
REMARK INTER + INTRA:         -11.227
REMARK INTER:                 -10.104
REMARK INTRA:                  -1.123
REMARK UNBOUND:                -0.658
REMARK  7 active torsions:
REMARK  status: ('A' for Active; 'I' for Inactive)
REMARK    1  A    between atoms: O_2  and  C_3 
REMARK    2  A    between atoms: C_6  and  C_9 
REMARK    3  A    between atoms: C_10  and  C_11 
REMARK       I    between atoms: C_11  and  N_13 
REMARK    4  A    between atoms: N_13  and  C_14 
REMARK    5  A    between atoms: C_18  and  C_19 
REMARK    6  A    between atoms: C_23  and  O_24 
REMARK    7  A    between atoms: C_26  and  O_27 
ROOT
HETATM    1  C   UNL     1      -1.869  14.910  23.105  0.00  0.00     0.048 A 
HETATM    2  C   UNL     1      -0.569  15.542  23.115  0.00  0.00     0.165 A 
HETATM    3  N   UNL     1       0.067  15.293  24.273  0.00  0.00    -0.121 NA
HETATM    4  O   UNL     1      -0.742  14.473  24.990  0.00  0.00    -0.211 OA
HETATM    5  C   UNL     1      -1.904  14.226  24.326  0.00  0.00     0.128 A 
ENDROOT
BRANCH   5   6
HETATM    6  C   UNL     1      -2.762  13.275  25.059  0.00  0.00     0.036 A 
HETATM    7  C   UNL     1      -3.585  12.355  24.387  0.00  0.00     0.044 A 
HETATM    8  C   UNL     1      -4.348  11.420  25.093  0.00  0.00     0.068 A 
HETATM    9 CL   UNL     1      -5.420  10.374  24.237  0.00  0.00    -0.081 Cl
HETATM   10  C   UNL     1      -4.244  11.334  26.480  0.00  0.00     0.090 A 
HETATM   11  C   UNL     1      -3.434  12.218  27.175  0.00  0.00     0.075 A 
HETATM   12  C   UNL     1      -2.729  13.196  26.471  0.00  0.00     0.081 A 
BRANCH  10  13
HETATM   13  O   UNL     1      -4.913  10.392  27.210  0.00  0.00    -0.359 OA
HETATM   14  H   UNL     1      -4.806  10.619  28.153  0.00  0.00     0.217 HD
ENDBRANCH  10  13
BRANCH  12  15
HETATM   15  O   UNL     1      -1.996  14.105  27.189  0.00  0.00    -0.360 OA
HETATM   16  H   UNL     1      -1.097  13.768  27.328  0.00  0.00     0.217 HD
ENDBRANCH  12  15
ENDBRANCH   5   6
BRANCH   1  17
HETATM   17  C   UNL     1      -2.914  14.795  22.082  0.00  0.00    -0.020 C 
HETATM   18  C   UNL     1      -2.674  14.174  20.850  0.00  0.00     0.015 C 
HETATM   19  C   UNL     1      -3.741  13.766  20.034  0.00  0.00     0.037 C 
HETATM   20  C   UNL     1      -5.056  13.941  20.456  0.00  0.00     0.068 C 
HETATM   21  C   UNL     1      -5.304  14.705  21.592  0.00  0.00     0.037 C 
HETATM   22  C   UNL     1      -4.237  15.165  22.375  0.00  0.00     0.015 C 
BRANCH  20  23
HETATM   23  O   UNL     1      -6.041  13.365  19.704  0.00  0.00    -0.356 OA
HETATM   24  C   UNL     1      -5.761  13.367  18.302  0.00  0.00     0.210 C 
ENDBRANCH  20  23
ENDBRANCH   1  17
BRANCH   2  25
HETATM   25  C   UNL     1       0.159  16.361  22.132  0.00  0.00     0.273 C 
HETATM   26  O   UNL     1      -0.372  17.140  21.349  0.00  0.00    -0.266 OA
HETATM   27  N   UNL     1       1.532  16.160  22.181  0.00  0.00    -0.356 N 
HETATM   28  H   UNL     1       1.858  15.581  22.963  0.00  0.00     0.162 HD
BRANCH  27  29
HETATM   29  C   UNL     1       2.490  16.888  21.385  0.00  0.00     0.118 C 
HETATM   30  C   UNL     1       2.940  16.088  20.171  0.00  0.00     0.026 C 
ENDBRANCH  27  29
ENDBRANCH   2  25
TORSDOF 7
ENDMDL
MODEL 6
REMARK VINA RESULT:    -7.818      3.561      5.964
REMARK INTER + INTRA:         -11.218
REMARK INTER:                  -9.806
REMARK INTRA:                  -1.412
REMARK UNBOUND:                -0.658
REMARK  7 active torsions:
REMARK  status: ('A' for Active; 'I' for Inactive)
REMARK    1  A    between atoms: O_2  and  C_3 
REMARK    2  A    between atoms: C_6  and  C_9 
REMARK    3  A    between atoms: C_10  and  C_11 
REMARK       I    between atoms: C_11  and  N_13 
REMARK    4  A    between atoms: N_13  and  C_14 
REMARK    5  A    between atoms: C_18  and  C_19 
REMARK    6  A    between atoms: C_23  and  O_24 
REMARK    7  A    between atoms: C_26  and  O_27 
ROOT
HETATM    1  C   UNL     1      -3.037  13.761  22.295  0.00  0.00     0.048 A 
HETATM    2  C   UNL     1      -3.716  14.114  21.068  0.00  0.00     0.165 A 
HETATM    3  N   UNL     1      -2.957  14.945  20.333  0.00  0.00    -0.121 NA
HETATM    4  O   UNL     1      -1.787  15.096  21.003  0.00  0.00    -0.211 OA
HETATM    5  C   UNL     1      -1.801  14.407  22.176  0.00  0.00     0.128 A 
ENDROOT
BRANCH   5   6
HETATM    6  C   UNL     1      -0.507  14.499  22.882  0.00  0.00     0.036 A 
HETATM    7  C   UNL     1      -0.411  15.026  24.181  0.00  0.00     0.044 A 
HETATM    8  C   UNL     1       0.811  15.052  24.860  0.00  0.00     0.068 A 
HETATM    9 CL   UNL     1       0.906  15.796  26.413  0.00  0.00    -0.081 Cl
HETATM   10  C   UNL     1       1.945  14.482  24.286  0.00  0.00     0.090 A 
HETATM   11  C   UNL     1       1.885  13.944  23.010  0.00  0.00     0.075 A 
HETATM   12  C   UNL     1       0.679  13.983  22.307  0.00  0.00     0.081 A 
BRANCH  10  13
HETATM   13  O   UNL     1       3.145  14.417  24.936  0.00  0.00    -0.359 OA
HETATM   14  H   UNL     1       3.633  13.651  24.580  0.00  0.00     0.217 HD
ENDBRANCH  10  13
BRANCH  12  15
HETATM   15  O   UNL     1       0.666  13.514  21.020  0.00  0.00    -0.360 OA
HETATM   16  H   UNL     1       0.017  14.008  20.495  0.00  0.00     0.217 HD
ENDBRANCH  12  15
ENDBRANCH   5   6
BRANCH   1  17
HETATM   17  C   UNL     1      -3.370  12.843  23.390  0.00  0.00    -0.020 C 
HETATM   18  C   UNL     1      -3.853  13.307  24.619  0.00  0.00     0.015 C 
HETATM   19  C   UNL     1      -4.484  12.431  25.517  0.00  0.00     0.037 C 
HETATM   20  C   UNL     1      -4.672  11.093  25.180  0.00  0.00     0.068 C 
HETATM   21  C   UNL     1      -4.049  10.591  24.042  0.00  0.00     0.037 C 
HETATM   22  C   UNL     1      -3.366  11.454  23.177  0.00  0.00     0.015 C 
BRANCH  20  23
HETATM   23  O   UNL     1      -5.448  10.337  26.013  0.00  0.00    -0.356 OA
HETATM   24  C   UNL     1      -6.480   9.619  25.333  0.00  0.00     0.210 C 
ENDBRANCH  20  23
ENDBRANCH   1  17
BRANCH   2  25
HETATM   25  C   UNL     1      -5.019  13.741  20.497  0.00  0.00     0.273 C 
HETATM   26  O   UNL     1      -6.072  13.728  21.122  0.00  0.00    -0.266 OA
HETATM   27  N   UNL     1      -4.936  13.398  19.154  0.00  0.00    -0.356 N 
HETATM   28  H   UNL     1      -4.023  13.571  18.718  0.00  0.00     0.162 HD
BRANCH  27  29
HETATM   29  C   UNL     1      -6.070  13.066  18.326  0.00  0.00     0.118 C 
HETATM   30  C   UNL     1      -6.023  13.788  16.988  0.00  0.00     0.026 C 
ENDBRANCH  27  29
ENDBRANCH   2  25
TORSDOF 7
ENDMDL
MODEL 7
REMARK VINA RESULT:    -7.810      2.088      2.499
REMARK INTER + INTRA:         -11.207
REMARK INTER:                 -10.056
REMARK INTRA:                  -1.152
REMARK UNBOUND:                -0.658
REMARK  7 active torsions:
REMARK  status: ('A' for Active; 'I' for Inactive)
REMARK    1  A    between atoms: O_2  and  C_3 
REMARK    2  A    between atoms: C_6  and  C_9 
REMARK    3  A    between atoms: C_10  and  C_11 
REMARK       I    between atoms: C_11  and  N_13 
REMARK    4  A    between atoms: N_13  and  C_14 
REMARK    5  A    between atoms: C_18  and  C_19 
REMARK    6  A    between atoms: C_23  and  O_24 
REMARK    7  A    between atoms: C_26  and  O_27 
ROOT
HETATM    1  C   UNL     1       0.104  13.473  22.800  0.00  0.00     0.048 A 
HETATM    2  C   UNL     1      -1.028  14.370  22.751  0.00  0.00     0.165 A 
HETATM    3  N   UNL     1      -2.100  13.806  23.335  0.00  0.00    -0.121 NA
HETATM    4  O   UNL     1      -1.693  12.605  23.814  0.00  0.00    -0.211 OA
HETATM    5  C   UNL     1      -0.387  12.373  23.512  0.00  0.00     0.128 A 
ENDROOT
BRANCH   5   6
HETATM    6  C   UNL     1       0.093  11.103  24.092  0.00  0.00     0.036 A 
HETATM    7  C   UNL     1       1.330  11.015  24.753  0.00  0.00     0.044 A 
HETATM    8  C   UNL     1       1.746   9.820  25.351  0.00  0.00     0.068 A 
HETATM    9 CL   UNL     1       3.312   9.726  26.066  0.00  0.00    -0.081 Cl
HETATM   10  C   UNL     1       0.899   8.713  25.367  0.00  0.00     0.090 A 
HETATM   11  C   UNL     1      -0.332   8.768  24.735  0.00  0.00     0.075 A 
HETATM   12  C   UNL     1      -0.713   9.940  24.078  0.00  0.00     0.081 A 
BRANCH  10  13
HETATM   13  O   UNL     1       1.228   7.547  25.999  0.00  0.00    -0.359 OA
HETATM   14  H   UNL     1       0.406   7.168  26.364  0.00  0.00     0.217 HD
ENDBRANCH  10  13
BRANCH  12  15
HETATM   15  O   UNL     1      -1.901   9.941  23.397  0.00  0.00    -0.360 OA
HETATM   16  H   UNL     1      -2.316  10.817  23.457  0.00  0.00     0.217 HD
ENDBRANCH  12  15
ENDBRANCH   5   6
BRANCH   1  17
HETATM   17  C   UNL     1       1.507  13.616  22.394  0.00  0.00    -0.020 C 
HETATM   18  C   UNL     1       1.886  13.638  21.046  0.00  0.00     0.015 C 
HETATM   19  C   UNL     1       3.152  14.112  20.666  0.00  0.00     0.037 C 
HETATM   20  C   UNL     1       4.035  14.604  21.623  0.00  0.00     0.068 C 
HETATM   21  C   UNL     1       3.735  14.430  22.971  0.00  0.00     0.037 C 
HETATM   22  C   UNL     1       2.496  13.899  23.351  0.00  0.00     0.015 C 
BRANCH  20  23
HETATM   23  O   UNL     1       5.173  15.214  21.175  0.00  0.00    -0.356 OA
HETATM   24  C   UNL     1       6.215  15.262  22.153  0.00  0.00     0.210 C 
ENDBRANCH  20  23
ENDBRANCH   1  17
BRANCH   2  25
HETATM   25  C   UNL     1      -1.214  15.729  22.217  0.00  0.00     0.273 C 
HETATM   26  O   UNL     1      -0.761  16.744  22.732  0.00  0.00    -0.266 OA
HETATM   27  N   UNL     1      -1.965  15.746  21.050  0.00  0.00    -0.356 N 
HETATM   28  H   UNL     1      -2.175  14.823  20.656  0.00  0.00     0.162 HD
BRANCH  27  29
HETATM   29  C   UNL     1      -2.236  16.932  20.273  0.00  0.00     0.118 C 
HETATM   30  C   UNL     1      -3.718  17.081  19.966  0.00  0.00     0.026 C 
ENDBRANCH  27  29
ENDBRANCH   2  25
TORSDOF 7
ENDMDL
MODEL 8
REMARK VINA RESULT:    -7.657      1.359      1.810
REMARK INTER + INTRA:         -11.001
REMARK INTER:                  -9.603
REMARK INTRA:                  -1.398
REMARK UNBOUND:                -0.658
REMARK  7 active torsions:
REMARK  status: ('A' for Active; 'I' for Inactive)
REMARK    1  A    between atoms: O_2  and  C_3 
REMARK    2  A    between atoms: C_6  and  C_9 
REMARK    3  A    between atoms: C_10  and  C_11 
REMARK       I    between atoms: C_11  and  N_13 
REMARK    4  A    between atoms: N_13  and  C_14 
REMARK    5  A    between atoms: C_18  and  C_19 
REMARK    6  A    between atoms: C_23  and  O_24 
REMARK    7  A    between atoms: C_26  and  O_27 
ROOT
HETATM    1  C   UNL     1      -1.078  11.730  22.526  0.00  0.00     0.048 A 
HETATM    2  C   UNL     1      -2.426  12.117  22.175  0.00  0.00     0.165 A 
HETATM    3  N   UNL     1      -3.315  11.258  22.704  0.00  0.00    -0.121 NA
HETATM    4  O   UNL     1      -2.602  10.365  23.436  0.00  0.00    -0.211 OA
HETATM    5  C   UNL     1      -1.267  10.615  23.351  0.00  0.00     0.128 A 
ENDROOT
BRANCH   5   6
HETATM    6  C   UNL     1      -0.482   9.699  24.202  0.00  0.00     0.036 A 
HETATM    7  C   UNL     1       0.614   8.980  23.697  0.00  0.00     0.044 A 
HETATM    8  C   UNL     1       1.386   8.162  24.530  0.00  0.00     0.068 A 
HETATM    9 CL   UNL     1       2.662   7.220  23.852  0.00  0.00    -0.081 Cl
HETATM   10  C   UNL     1       1.125   8.108  25.897  0.00  0.00     0.090 A 
HETATM   11  C   UNL     1       0.058   8.813  26.432  0.00  0.00     0.075 A 
HETATM   12  C   UNL     1      -0.753   9.572  25.585  0.00  0.00     0.081 A 
BRANCH  10  13
HETATM   13  O   UNL     1       1.892   7.382  26.764  0.00  0.00    -0.359 OA
HETATM   14  H   UNL     1       1.426   7.358  27.621  0.00  0.00     0.217 HD
ENDBRANCH  10  13
BRANCH  12  15
HETATM   15  O   UNL     1      -1.845  10.197  26.128  0.00  0.00    -0.360 OA
HETATM   16  H   UNL     1      -1.571  10.755  26.873  0.00  0.00     0.217 HD
ENDBRANCH  12  15
ENDBRANCH   5   6
BRANCH   1  17
HETATM   17  C   UNL     1       0.230  12.349  22.287  0.00  0.00    -0.020 C 
HETATM   18  C   UNL     1       0.688  12.628  20.993  0.00  0.00     0.015 C 
HETATM   19  C   UNL     1       1.758  13.514  20.788  0.00  0.00     0.037 C 
HETATM   20  C   UNL     1       2.355  14.158  21.869  0.00  0.00     0.068 C 
HETATM   21  C   UNL     1       2.021  13.760  23.159  0.00  0.00     0.037 C 
HETATM   22  C   UNL     1       0.995  12.829  23.363  0.00  0.00     0.015 C 
BRANCH  20  23
HETATM   23  O   UNL     1       3.266  15.138  21.592  0.00  0.00    -0.356 OA
HETATM   24  C   UNL     1       4.609  14.658  21.501  0.00  0.00     0.210 C 
ENDBRANCH  20  23
ENDBRANCH   1  17
BRANCH   2  25
HETATM   25  C   UNL     1      -2.981  13.231  21.391  0.00  0.00     0.273 C 
HETATM   26  O   UNL     1      -3.821  13.107  20.508  0.00  0.00    -0.266 OA
HETATM   27  N   UNL     1      -2.449  14.460  21.758  0.00  0.00    -0.356 N 
HETATM   28  H   UNL     1      -1.853  14.443  22.592  0.00  0.00     0.162 HD
BRANCH  27  29
HETATM   29  C   UNL     1      -2.869  15.727  21.208  0.00  0.00     0.118 C 
HETATM   30  C   UNL     1      -1.744  16.414  20.450  0.00  0.00     0.026 C 
ENDBRANCH  27  29
ENDBRANCH   2  25
TORSDOF 7
ENDMDL
MODEL 9
REMARK VINA RESULT:    -7.557      2.915      6.212
REMARK INTER + INTRA:         -10.865
REMARK INTER:                 -10.207
REMARK INTRA:                  -0.658
REMARK UNBOUND:                -0.658
REMARK  7 active torsions:
REMARK  status: ('A' for Active; 'I' for Inactive)
REMARK    1  A    between atoms: O_2  and  C_3 
REMARK    2  A    between atoms: C_6  and  C_9 
REMARK    3  A    between atoms: C_10  and  C_11 
REMARK       I    between atoms: C_11  and  N_13 
REMARK    4  A    between atoms: N_13  and  C_14 
REMARK    5  A    between atoms: C_18  and  C_19 
REMARK    6  A    between atoms: C_23  and  O_24 
REMARK    7  A    between atoms: C_26  and  O_27 
ROOT
HETATM    1  C   UNL     1      -0.617  12.040  22.911  0.00  0.00     0.048 A 
HETATM    2  C   UNL     1      -0.936  10.706  23.367  0.00  0.00     0.165 A 
HETATM    3  N   UNL     1      -2.269  10.527  23.400  0.00  0.00    -0.121 NA
HETATM    4  O   UNL     1      -2.825  11.669  22.925  0.00  0.00    -0.211 OA
HETATM    5  C   UNL     1      -1.871  12.592  22.625  0.00  0.00     0.128 A 
ENDROOT
BRANCH   5   6
HETATM    6  C   UNL     1      -2.455  13.813  22.035  0.00  0.00     0.036 A 
HETATM    7  C   UNL     1      -1.655  14.790  21.420  0.00  0.00     0.044 A 
HETATM    8  C   UNL     1      -2.228  15.913  20.812  0.00  0.00     0.068 A 
HETATM    9 CL   UNL     1      -1.207  17.138  20.155  0.00  0.00    -0.081 Cl
HETATM   10  C   UNL     1      -3.613  16.041  20.738  0.00  0.00     0.090 A 
HETATM   11  C   UNL     1      -4.433  15.090  21.325  0.00  0.00     0.075 A 
HETATM   12  C   UNL     1      -3.856  14.007  21.993  0.00  0.00     0.081 A 
BRANCH  10  13
HETATM   13  O   UNL     1      -4.222  17.080  20.094  0.00  0.00    -0.359 OA
HETATM   14  H   UNL     1      -4.574  16.738  19.250  0.00  0.00     0.217 HD
ENDBRANCH  10  13
BRANCH  12  15
HETATM   15  O   UNL     1      -4.688  13.124  22.629  0.00  0.00    -0.360 OA
HETATM   16  H   UNL     1      -4.213  12.684  23.352  0.00  0.00     0.217 HD
ENDBRANCH  12  15
ENDBRANCH   5   6
BRANCH   1  17
HETATM   17  C   UNL     1       0.652  12.716  22.618  0.00  0.00    -0.020 C 
HETATM   18  C   UNL     1       1.085  12.932  21.304  0.00  0.00     0.015 C 
HETATM   19  C   UNL     1       2.101  13.862  21.030  0.00  0.00     0.037 C 
HETATM   20  C   UNL     1       2.666  14.611  22.058  0.00  0.00     0.068 C 
HETATM   21  C   UNL     1       2.363  14.284  23.376  0.00  0.00     0.037 C 
HETATM   22  C   UNL     1       1.393  13.312  23.652  0.00  0.00     0.015 C 
BRANCH  20  23
HETATM   23  O   UNL     1       3.517  15.622  21.708  0.00  0.00    -0.356 OA
HETATM   24  C   UNL     1       3.436  15.979  20.326  0.00  0.00     0.210 C 
ENDBRANCH  20  23
ENDBRANCH   1  17
BRANCH   2  25
HETATM   25  C   UNL     1      -0.112   9.557  23.773  0.00  0.00     0.273 C 
HETATM   26  O   UNL     1       1.067   9.411  23.475  0.00  0.00    -0.266 OA
HETATM   27  N   UNL     1      -0.815   8.639  24.541  0.00  0.00    -0.356 N 
HETATM   28  H   UNL     1      -1.754   8.940  24.825  0.00  0.00     0.162 HD
BRANCH  27  29
HETATM   29  C   UNL     1      -0.233   7.460  25.137  0.00  0.00     0.118 C 
HETATM   30  C   UNL     1      -0.115   6.321  24.136  0.00  0.00     0.026 C 
ENDBRANCH  27  29
ENDBRANCH   2  25
TORSDOF 7
ENDMDL
