MODEL 1
REMARK VINA RESULT:    -8.891      0.000      0.000
REMARK INTER + INTRA:         -14.236
REMARK INTER:                 -11.645
REMARK INTRA:                  -2.590
REMARK UNBOUND:                -2.226
REMARK  7 active torsions:
REMARK  status: ('A' for Active; 'I' for Inactive)
REMARK    1  A    between atoms: O_1  and  C_2 
REMARK    2  A    between atoms: C_4  and  O_5 
REMARK    3  A    between atoms: C_6  and  C_17 
REMARK    4  A    between atoms: C_8  and  C_9 
REMARK    5  A    between atoms: C_9  and  C_10 
REMARK    6  A    between atoms: C_10  and  C_11 
REMARK    7  A    between atoms: N_23  and  C_24 
ROOT
HETATM    1  C   UNL     1       9.112  15.090  21.327  0.00  0.00     0.074 C 
HETATM    2  C   UNL     1       9.028  14.601  20.025  0.00  0.00     0.074 C 
HETATM    3  C   UNL     1       8.313  13.429  19.766  0.00  0.00     0.082 C 
HETATM    4  C   UNL     1       7.739  12.688  20.812  0.00  0.00     0.046 C 
HETATM    5  C   UNL     1       7.959  13.142  22.124  0.00  0.00     0.028 C 
HETATM    6  C   UNL     1       8.534  14.401  22.394  0.00  0.00    -0.024 C 
ENDROOT
BRANCH   4   7
HETATM    7  C   UNL     1       6.915  11.467  20.524  0.00  0.00     0.172 A 
HETATM    8  N   UNL     1       7.072  10.768  19.429  0.00  0.00    -0.151 NA
HETATM    9  N   UNL     1       6.199   9.732  19.536  0.00  0.00    -0.226 N 
HETATM   10  H   UNL     1       6.027   9.081  18.781  0.00  0.00     0.194 HD
HETATM   11  C   UNL     1       5.490   9.804  20.723  0.00  0.00     0.349 A 
HETATM   12  O   UNL     1       4.598   9.039  21.056  0.00  0.00    -0.245 OA
HETATM   13  N   UNL     1       5.971  10.925  21.370  0.00  0.00    -0.241 N 
BRANCH  13  14
HETATM   14  C   UNL     1       5.431  11.373  22.589  0.00  0.00     0.084 A 
HETATM   15  C   UNL     1       4.296  12.199  22.558  0.00  0.00     0.033 A 
HETATM   16  C   UNL     1       3.647  12.557  23.743  0.00  0.00     0.002 A 
HETATM   17  C   UNL     1       4.149  12.127  24.971  0.00  0.00     0.003 A 
HETATM   18  C   UNL     1       5.312  11.361  25.015  0.00  0.00     0.044 A 
HETATM   19  C   UNL     1       5.947  10.995  23.826  0.00  0.00     0.143 A 
HETATM   20  F   UNL     1       7.071  10.266  23.903  0.00  0.00    -0.204 F 
ENDBRANCH  13  14
ENDBRANCH   4   7
BRANCH   3  21
HETATM   21  O   UNL     1       8.176  13.039  18.462  0.00  0.00    -0.360 OA
HETATM   22  H   UNL     1       8.504  13.726  17.862  0.00  0.00     0.217 HD
ENDBRANCH   3  21
BRANCH   6  23
HETATM   23  C   UNL     1       8.452  14.933  23.818  0.00  0.00     0.046 C 
BRANCH  23  24
HETATM   24  C   UNL     1       7.405  14.247  24.712  0.00  0.00     0.043 C 
BRANCH  24  25
HETATM   25  C   UNL     1       6.097  14.996  24.814  0.00  0.00    -0.058 A 
HETATM   26  C   UNL     1       5.519  15.561  23.669  0.00  0.00     0.007 A 
HETATM   27  C   UNL     1       4.276  16.193  23.741  0.00  0.00     0.001 A 
HETATM   28  C   UNL     1       3.605  16.273  24.960  0.00  0.00     0.000 A 
HETATM   29  C   UNL     1       4.178  15.727  26.108  0.00  0.00     0.001 A 
HETATM   30  C   UNL     1       5.421  15.094  26.036  0.00  0.00     0.007 A 
ENDBRANCH  24  25
ENDBRANCH  23  24
ENDBRANCH   6  23
BRANCH   1  31
HETATM   31  O   UNL     1       9.775  16.259  21.552  0.00  0.00    -0.360 OA
HETATM   32  H   UNL     1       9.545  16.903  20.863  0.00  0.00     0.217 HD
ENDBRANCH   1  31
TORSDOF 7
ENDMDL
MODEL 2
REMARK VINA RESULT:    -8.697      2.734      4.657
REMARK INTER + INTRA:         -13.973
REMARK INTER:                 -11.770
REMARK INTRA:                  -2.202
REMARK UNBOUND:                -2.226
REMARK  7 active torsions:
REMARK  status: ('A' for Active; 'I' for Inactive)
REMARK    1  A    between atoms: O_1  and  C_2 
REMARK    2  A    between atoms: C_4  and  O_5 
REMARK    3  A    between atoms: C_6  and  C_17 
REMARK    4  A    between atoms: C_8  and  C_9 
REMARK    5  A    between atoms: C_9  and  C_10 
REMARK    6  A    between atoms: C_10  and  C_11 
REMARK    7  A    between atoms: N_23  and  C_24 
ROOT
HETATM    1  C   UNL     1       9.502  11.582  25.777  0.00  0.00     0.074 C 
HETATM    2  C   UNL     1      10.377  11.086  24.813  0.00  0.00     0.074 C 
HETATM    3  C   UNL     1      10.000  11.082  23.467  0.00  0.00     0.082 C 
HETATM    4  C   UNL     1       8.718  11.500  23.075  0.00  0.00     0.046 C 
HETATM    5  C   UNL     1       7.818  11.868  24.091  0.00  0.00     0.028 C 
HETATM    6  C   UNL     1       8.227  12.034  25.430  0.00  0.00    -0.024 C 
ENDROOT
BRANCH   4   7
HETATM    7  C   UNL     1       8.341  11.558  21.624  0.00  0.00     0.172 A 
HETATM    8  N   UNL     1       7.672  10.594  21.043  0.00  0.00    -0.151 NA
HETATM    9  N   UNL     1       7.481  11.010  19.764  0.00  0.00    -0.226 N 
HETATM   10  H   UNL     1       7.079  10.417  19.050  0.00  0.00     0.194 HD
HETATM   11  C   UNL     1       8.050  12.256  19.559  0.00  0.00     0.349 A 
HETATM   12  O   UNL     1       8.083  12.846  18.491  0.00  0.00    -0.245 OA
HETATM   13  N   UNL     1       8.594  12.615  20.777  0.00  0.00    -0.241 N 
BRANCH  13  14
HETATM   14  C   UNL     1       9.333  13.799  20.944  0.00  0.00     0.084 A 
HETATM   15  C   UNL     1       8.685  14.929  21.467  0.00  0.00     0.033 A 
HETATM   16  C   UNL     1       9.409  16.083  21.776  0.00  0.00     0.002 A 
HETATM   17  C   UNL     1      10.780  16.134  21.526  0.00  0.00     0.003 A 
HETATM   18  C   UNL     1      11.421  15.041  20.947  0.00  0.00     0.044 A 
HETATM   19  C   UNL     1      10.693  13.886  20.655  0.00  0.00     0.143 A 
HETATM   20  F   UNL     1      11.337  12.854  20.088  0.00  0.00    -0.204 F 
ENDBRANCH  13  14
ENDBRANCH   4   7
BRANCH   3  21
HETATM   21  O   UNL     1      10.926  10.675  22.546  0.00  0.00    -0.360 OA
HETATM   22  H   UNL     1      11.643  11.323  22.472  0.00  0.00     0.217 HD
ENDBRANCH   3  21
BRANCH   6  23
HETATM   23  C   UNL     1       7.268  12.723  26.390  0.00  0.00     0.046 C 
BRANCH  23  24
HETATM   24  C   UNL     1       7.293  14.260  26.346  0.00  0.00     0.043 C 
BRANCH  24  25
HETATM   25  C   UNL     1       6.207  14.869  25.490  0.00  0.00    -0.058 A 
HETATM   26  C   UNL     1       4.990  15.256  26.067  0.00  0.00     0.007 A 
HETATM   27  C   UNL     1       4.009  15.884  25.297  0.00  0.00     0.001 A 
HETATM   28  C   UNL     1       4.233  16.121  23.942  0.00  0.00     0.000 A 
HETATM   29  C   UNL     1       5.435  15.726  23.355  0.00  0.00     0.001 A 
HETATM   30  C   UNL     1       6.417  15.099  24.125  0.00  0.00     0.007 A 
ENDBRANCH  24  25
ENDBRANCH  23  24
ENDBRANCH   6  23
BRANCH   1  31
HETATM   31  O   UNL     1       9.905  11.620  27.079  0.00  0.00    -0.360 OA
HETATM   32  H   UNL     1      10.568  10.928  27.236  0.00  0.00     0.217 HD
ENDBRANCH   1  31
TORSDOF 7
ENDMDL
MODEL 3
REMARK VINA RESULT:    -8.615      2.759      3.302
REMARK INTER + INTRA:         -13.862
REMARK INTER:                 -10.722
REMARK INTRA:                  -3.140
REMARK UNBOUND:                -2.226
REMARK  7 active torsions:
REMARK  status: ('A' for Active; 'I' for Inactive)
REMARK    1  A    between atoms: O_1  and  C_2 
REMARK    2  A    between atoms: C_4  and  O_5 
REMARK    3  A    between atoms: C_6  and  C_17 
REMARK    4  A    between atoms: C_8  and  C_9 
REMARK    5  A    between atoms: C_9  and  C_10 
REMARK    6  A    between atoms: C_10  and  C_11 
REMARK    7  A    between atoms: N_23  and  C_24 
ROOT
HETATM    1  C   UNL     1      10.010  13.678  24.601  0.00  0.00     0.074 C 
HETATM    2  C   UNL     1      10.419  12.667  23.734  0.00  0.00     0.074 C 
HETATM    3  C   UNL     1       9.719  11.458  23.697  0.00  0.00     0.082 C 
HETATM    4  C   UNL     1       8.653  11.213  24.579  0.00  0.00     0.046 C 
HETATM    5  C   UNL     1       8.357  12.207  25.528  0.00  0.00     0.028 C 
HETATM    6  C   UNL     1       8.939  13.490  25.475  0.00  0.00    -0.024 C 
ENDROOT
BRANCH   4   7
HETATM    7  C   UNL     1       7.863   9.941  24.490  0.00  0.00     0.172 A 
HETATM    8  N   UNL     1       8.412   8.769  24.682  0.00  0.00    -0.151 NA
HETATM    9  N   UNL     1       7.398   7.872  24.566  0.00  0.00    -0.226 N 
HETATM   10  H   UNL     1       7.548   6.873  24.565  0.00  0.00     0.194 HD
HETATM   11  C   UNL     1       6.201   8.513  24.294  0.00  0.00     0.349 A 
HETATM   12  O   UNL     1       5.137   7.954  24.082  0.00  0.00    -0.245 OA
HETATM   13  N   UNL     1       6.505   9.860  24.262  0.00  0.00    -0.241 N 
BRANCH  13  14
HETATM   14  C   UNL     1       5.547  10.835  23.933  0.00  0.00     0.084 A 
HETATM   15  C   UNL     1       5.367  11.172  22.582  0.00  0.00     0.033 A 
HETATM   16  C   UNL     1       4.336  12.033  22.197  0.00  0.00     0.002 A 
HETATM   17  C   UNL     1       3.502  12.597  23.162  0.00  0.00     0.003 A 
HETATM   18  C   UNL     1       3.714  12.320  24.510  0.00  0.00     0.044 A 
HETATM   19  C   UNL     1       4.736  11.447  24.886  0.00  0.00     0.143 A 
HETATM   20  F   UNL     1       4.921  11.208  26.194  0.00  0.00    -0.204 F 
ENDBRANCH  13  14
ENDBRANCH   4   7
BRANCH   3  21
HETATM   21  O   UNL     1      10.096  10.531  22.764  0.00  0.00    -0.360 OA
HETATM   22  H   UNL     1      10.105  10.921  21.877  0.00  0.00     0.217 HD
ENDBRANCH   3  21
BRANCH   6  23
HETATM   23  C   UNL     1       8.336  14.584  26.347  0.00  0.00     0.046 C 
BRANCH  23  24
HETATM   24  C   UNL     1       6.844  14.409  26.674  0.00  0.00     0.043 C 
BRANCH  24  25
HETATM   25  C   UNL     1       5.914  14.989  25.635  0.00  0.00    -0.058 A 
HETATM   26  C   UNL     1       4.666  15.502  26.014  0.00  0.00     0.007 A 
HETATM   27  C   UNL     1       3.831  16.104  25.071  0.00  0.00     0.001 A 
HETATM   28  C   UNL     1       4.232  16.189  23.739  0.00  0.00     0.000 A 
HETATM   29  C   UNL     1       5.465  15.668  23.348  0.00  0.00     0.001 A 
HETATM   30  C   UNL     1       6.302  15.067  24.291  0.00  0.00     0.007 A 
ENDBRANCH  24  25
ENDBRANCH  23  24
ENDBRANCH   6  23
BRANCH   1  31
HETATM   31  O   UNL     1      10.677  14.868  24.589  0.00  0.00    -0.360 OA
HETATM   32  H   UNL     1      10.112  15.555  24.200  0.00  0.00     0.217 HD
ENDBRANCH   1  31
TORSDOF 7
ENDMDL
MODEL 4
REMARK VINA RESULT:    -8.567      2.602      4.150
REMARK INTER + INTRA:         -13.798
REMARK INTER:                 -11.431
REMARK INTRA:                  -2.366
REMARK UNBOUND:                -2.226
REMARK  7 active torsions:
REMARK  status: ('A' for Active; 'I' for Inactive)
REMARK    1  A    between atoms: O_1  and  C_2 
REMARK    2  A    between atoms: C_4  and  O_5 
REMARK    3  A    between atoms: C_6  and  C_17 
REMARK    4  A    between atoms: C_8  and  C_9 
REMARK    5  A    between atoms: C_9  and  C_10 
REMARK    6  A    between atoms: C_10  and  C_11 
REMARK    7  A    between atoms: N_23  and  C_24 
ROOT
HETATM    1  C   UNL     1       9.216  11.701  25.948  0.00  0.00     0.074 C 
HETATM    2  C   UNL     1       9.916  10.970  24.991  0.00  0.00     0.074 C 
HETATM    3  C   UNL     1       9.264  10.533  23.835  0.00  0.00     0.082 C 
HETATM    4  C   UNL     1       7.888  10.751  23.655  0.00  0.00     0.046 C 
HETATM    5  C   UNL     1       7.190  11.376  24.704  0.00  0.00     0.028 C 
HETATM    6  C   UNL     1       7.853  11.966  25.798  0.00  0.00    -0.024 C 
ENDROOT
BRANCH   4   7
HETATM    7  C   UNL     1       7.207  10.340  22.384  0.00  0.00     0.172 A 
HETATM    8  N   UNL     1       6.471   9.260  22.310  0.00  0.00    -0.151 NA
HETATM    9  N   UNL     1       5.991   9.237  21.039  0.00  0.00    -0.226 N 
HETATM   10  H   UNL     1       5.472   8.455  20.664  0.00  0.00     0.194 HD
HETATM   11  C   UNL     1       6.450  10.328  20.319  0.00  0.00     0.349 A 
HETATM   12  O   UNL     1       6.227  10.532  19.136  0.00  0.00    -0.245 OA
HETATM   13  N   UNL     1       7.226  11.051  21.203  0.00  0.00    -0.241 N 
BRANCH  13  14
HETATM   14  C   UNL     1       7.933  12.201  20.808  0.00  0.00     0.084 A 
HETATM   15  C   UNL     1       7.361  13.459  21.053  0.00  0.00     0.033 A 
HETATM   16  C   UNL     1       8.083  14.628  20.802  0.00  0.00     0.002 A 
HETATM   17  C   UNL     1       9.368  14.552  20.265  0.00  0.00     0.003 A 
HETATM   18  C   UNL     1       9.919  13.310  19.958  0.00  0.00     0.044 A 
HETATM   19  C   UNL     1       9.197  12.146  20.226  0.00  0.00     0.143 A 
HETATM   20  F   UNL     1       9.751  10.965  19.909  0.00  0.00    -0.204 F 
ENDBRANCH  13  14
ENDBRANCH   4   7
BRANCH   3  21
HETATM   21  O   UNL     1      10.013   9.903  22.879  0.00  0.00    -0.360 OA
HETATM   22  H   UNL     1       9.676  10.101  21.992  0.00  0.00     0.217 HD
ENDBRANCH   3  21
BRANCH   6  23
HETATM   23  C   UNL     1       7.048  12.875  26.716  0.00  0.00     0.046 C 
BRANCH  23  24
HETATM   24  C   UNL     1       7.193  14.380  26.435  0.00  0.00     0.043 C 
BRANCH  24  25
HETATM   25  C   UNL     1       6.131  14.940  25.518  0.00  0.00    -0.058 A 
HETATM   26  C   UNL     1       4.889  15.332  26.036  0.00  0.00     0.007 A 
HETATM   27  C   UNL     1       3.928  15.915  25.208  0.00  0.00     0.001 A 
HETATM   28  C   UNL     1       4.197  16.104  23.854  0.00  0.00     0.000 A 
HETATM   29  C   UNL     1       5.424  15.703  23.325  0.00  0.00     0.001 A 
HETATM   30  C   UNL     1       6.386  15.120  24.153  0.00  0.00     0.007 A 
ENDBRANCH  24  25
ENDBRANCH  23  24
ENDBRANCH   6  23
BRANCH   1  31
HETATM   31  O   UNL     1       9.881  12.159  27.047  0.00  0.00    -0.360 OA
HETATM   32  H   UNL     1       9.243  12.400  27.738  0.00  0.00     0.217 HD
ENDBRANCH   1  31
TORSDOF 7
ENDMDL
MODEL 5
REMARK VINA RESULT:    -8.524      2.762      5.148
REMARK INTER + INTRA:         -13.739
REMARK INTER:                 -10.931
REMARK INTRA:                  -2.808
REMARK UNBOUND:                -2.226
REMARK  7 active torsions:
REMARK  status: ('A' for Active; 'I' for Inactive)
REMARK    1  A    between atoms: O_1  and  C_2 
REMARK    2  A    between atoms: C_4  and  O_5 
REMARK    3  A    between atoms: C_6  and  C_17 
REMARK    4  A    between atoms: C_8  and  C_9 
REMARK    5  A    between atoms: C_9  and  C_10 
REMARK    6  A    between atoms: C_10  and  C_11 
REMARK    7  A    between atoms: N_23  and  C_24 
ROOT
HETATM    1  C   UNL     1       7.506  10.955  21.284  0.00  0.00     0.074 C 
HETATM    2  C   UNL     1       8.843  11.094  20.920  0.00  0.00     0.074 C 
HETATM    3  C   UNL     1       9.450  12.353  20.968  0.00  0.00     0.082 C 
HETATM    4  C   UNL     1       8.710  13.498  21.304  0.00  0.00     0.046 C 
HETATM    5  C   UNL     1       7.334  13.335  21.536  0.00  0.00     0.028 C 
HETATM    6  C   UNL     1       6.740  12.062  21.652  0.00  0.00    -0.024 C 
ENDROOT
BRANCH   4   7
HETATM    7  C   UNL     1       9.380  14.836  21.420  0.00  0.00     0.172 A 
HETATM    8  N   UNL     1       9.685  15.551  20.367  0.00  0.00    -0.151 NA
HETATM    9  N   UNL     1      10.229  16.697  20.856  0.00  0.00    -0.226 N 
HETATM   10  H   UNL     1      10.654  17.397  20.263  0.00  0.00     0.194 HD
HETATM   11  C   UNL     1      10.259  16.678  22.240  0.00  0.00     0.349 A 
HETATM   12  O   UNL     1      10.747  17.548  22.944  0.00  0.00    -0.245 OA
HETATM   13  N   UNL     1       9.691  15.472  22.603  0.00  0.00    -0.241 N 
BRANCH  13  14
HETATM   14  C   UNL     1       9.616  15.055  23.944  0.00  0.00     0.084 A 
HETATM   15  C   UNL     1      10.789  14.622  24.580  0.00  0.00     0.033 A 
HETATM   16  C   UNL     1      10.789  14.327  25.945  0.00  0.00     0.002 A 
HETATM   17  C   UNL     1       9.607  14.424  26.680  0.00  0.00     0.003 A 
HETATM   18  C   UNL     1       8.424  14.791  26.043  0.00  0.00     0.044 A 
HETATM   19  C   UNL     1       8.435  15.098  24.681  0.00  0.00     0.143 A 
HETATM   20  F   UNL     1       7.276  15.438  24.095  0.00  0.00    -0.204 F 
ENDBRANCH  13  14
ENDBRANCH   4   7
BRANCH   3  21
HETATM   21  O   UNL     1      10.788  12.427  20.694  0.00  0.00    -0.360 OA
HETATM   22  H   UNL     1      10.952  12.308  19.746  0.00  0.00     0.217 HD
ENDBRANCH   3  21
BRANCH   6  23
HETATM   23  C   UNL     1       5.322  11.982  22.202  0.00  0.00     0.046 C 
BRANCH  23  24
HETATM   24  C   UNL     1       5.206  12.115  23.729  0.00  0.00     0.043 C 
BRANCH  24  25
HETATM   25  C   UNL     1       4.762  13.481  24.196  0.00  0.00    -0.058 A 
HETATM   26  C   UNL     1       4.856  13.828  25.551  0.00  0.00     0.007 A 
HETATM   27  C   UNL     1       4.515  15.112  25.980  0.00  0.00     0.001 A 
HETATM   28  C   UNL     1       4.068  16.058  25.059  0.00  0.00     0.000 A 
HETATM   29  C   UNL     1       3.956  15.719  23.711  0.00  0.00     0.001 A 
HETATM   30  C   UNL     1       4.298  14.435  23.281  0.00  0.00     0.007 A 
ENDBRANCH  24  25
ENDBRANCH  23  24
ENDBRANCH   6  23
BRANCH   1  31
HETATM   31  O   UNL     1       6.945   9.712  21.276  0.00  0.00    -0.360 OA
HETATM   32  H   UNL     1       7.621   9.047  21.485  0.00  0.00     0.217 HD
ENDBRANCH   1  31
TORSDOF 7
ENDMDL
MODEL 6
REMARK VINA RESULT:    -8.484      1.515      2.079
REMARK INTER + INTRA:         -13.685
REMARK INTER:                 -11.122
REMARK INTRA:                  -2.564
REMARK UNBOUND:                -2.226
REMARK  7 active torsions:
REMARK  status: ('A' for Active; 'I' for Inactive)
REMARK    1  A    between atoms: O_1  and  C_2 
REMARK    2  A    between atoms: C_4  and  O_5 
REMARK    3  A    between atoms: C_6  and  C_17 
REMARK    4  A    between atoms: C_8  and  C_9 
REMARK    5  A    between atoms: C_9  and  C_10 
REMARK    6  A    between atoms: C_10  and  C_11 
REMARK    7  A    between atoms: N_23  and  C_24 
ROOT
HETATM    1  C   UNL     1       9.815  13.448  22.236  0.00  0.00     0.074 C 
HETATM    2  C   UNL     1      10.156  12.192  21.739  0.00  0.00     0.074 C 
HETATM    3  C   UNL     1       9.160  11.350  21.235  0.00  0.00     0.082 C 
HETATM    4  C   UNL     1       7.806  11.718  21.293  0.00  0.00     0.046 C 
HETATM    5  C   UNL     1       7.492  12.935  21.923  0.00  0.00     0.028 C 
HETATM    6  C   UNL     1       8.484  13.867  22.288  0.00  0.00    -0.024 C 
ENDROOT
BRANCH   4   7
HETATM    7  C   UNL     1       6.748  10.842  20.690  0.00  0.00     0.172 A 
HETATM    8  N   UNL     1       6.783  10.476  19.434  0.00  0.00    -0.151 NA
HETATM    9  N   UNL     1       5.704   9.667  19.264  0.00  0.00    -0.226 N 
HETATM   10  H   UNL     1       5.419   9.318  18.359  0.00  0.00     0.194 HD
HETATM   11  C   UNL     1       4.992   9.540  20.445  0.00  0.00     0.349 A 
HETATM   12  O   UNL     1       3.947   8.922  20.571  0.00  0.00    -0.245 OA
HETATM   13  N   UNL     1       5.684  10.292  21.374  0.00  0.00    -0.241 N 
BRANCH  13  14
HETATM   14  C   UNL     1       5.216  10.470  22.688  0.00  0.00     0.084 A 
HETATM   15  C   UNL     1       5.462   9.461  23.631  0.00  0.00     0.033 A 
HETATM   16  C   UNL     1       5.137   9.652  24.977  0.00  0.00     0.002 A 
HETATM   17  C   UNL     1       4.525  10.837  25.385  0.00  0.00     0.003 A 
HETATM   18  C   UNL     1       4.218  11.818  24.445  0.00  0.00     0.044 A 
HETATM   19  C   UNL     1       4.560  11.626  23.105  0.00  0.00     0.143 A 
HETATM   20  F   UNL     1       4.242  12.585  22.222  0.00  0.00    -0.204 F 
ENDBRANCH  13  14
ENDBRANCH   4   7
BRANCH   3  21
HETATM   21  O   UNL     1       9.551  10.168  20.669  0.00  0.00    -0.360 OA
HETATM   22  H   UNL     1       8.911   9.466  20.863  0.00  0.00     0.217 HD
ENDBRANCH   3  21
BRANCH   6  23
HETATM   23  C   UNL     1       8.039  15.270  22.678  0.00  0.00     0.046 C 
BRANCH  23  24
HETATM   24  C   UNL     1       6.547  15.567  22.452  0.00  0.00     0.043 C 
BRANCH  24  25
HETATM   25  C   UNL     1       5.713  15.522  23.710  0.00  0.00    -0.058 A 
HETATM   26  C   UNL     1       6.245  14.981  24.889  0.00  0.00     0.007 A 
HETATM   27  C   UNL     1       5.507  15.000  26.074  0.00  0.00     0.001 A 
HETATM   28  C   UNL     1       4.227  15.552  26.088  0.00  0.00     0.000 A 
HETATM   29  C   UNL     1       3.683  16.080  24.918  0.00  0.00     0.001 A 
HETATM   30  C   UNL     1       4.421  16.062  23.732  0.00  0.00     0.007 A 
ENDBRANCH  24  25
ENDBRANCH  23  24
ENDBRANCH   6  23
BRANCH   1  31
HETATM   31  O   UNL     1      10.805  14.273  22.681  0.00  0.00    -0.360 OA
HETATM   32  H   UNL     1      11.518  14.311  22.023  0.00  0.00     0.217 HD
ENDBRANCH   1  31
TORSDOF 7
ENDMDL
MODEL 7
REMARK VINA RESULT:    -8.407      1.513      1.998
REMARK INTER + INTRA:         -13.581
REMARK INTER:                 -10.524
REMARK INTRA:                  -3.057
REMARK UNBOUND:                -2.226
REMARK  7 active torsions:
REMARK  status: ('A' for Active; 'I' for Inactive)
REMARK    1  A    between atoms: O_1  and  C_2 
REMARK    2  A    between atoms: C_4  and  O_5 
REMARK    3  A    between atoms: C_6  and  C_17 
REMARK    4  A    between atoms: C_8  and  C_9 
REMARK    5  A    between atoms: C_9  and  C_10 
REMARK    6  A    between atoms: C_10  and  C_11 
REMARK    7  A    between atoms: N_23  and  C_24 
ROOT
HETATM    1  C   UNL     1       8.721  14.763  21.647  0.00  0.00     0.074 C 
HETATM    2  C   UNL     1       8.602  13.918  20.547  0.00  0.00     0.074 C 
HETATM    3  C   UNL     1       8.279  12.571  20.735  0.00  0.00     0.082 C 
HETATM    4  C   UNL     1       8.148  12.034  22.027  0.00  0.00     0.046 C 
HETATM    5  C   UNL     1       8.407  12.889  23.112  0.00  0.00     0.028 C 
HETATM    6  C   UNL     1       8.572  14.279  22.948  0.00  0.00    -0.024 C 
ENDROOT
BRANCH   4   7
HETATM    7  C   UNL     1       7.736  10.605  22.225  0.00  0.00     0.172 A 
HETATM    8  N   UNL     1       8.506   9.607  21.872  0.00  0.00    -0.151 NA
HETATM    9  N   UNL     1       7.831   8.485  22.238  0.00  0.00    -0.226 N 
HETATM   10  H   UNL     1       8.143   7.555  21.994  0.00  0.00     0.194 HD
HETATM   11  C   UNL     1       6.619   8.808  22.824  0.00  0.00     0.349 A 
HETATM   12  O   UNL     1       5.781   8.001  23.195  0.00  0.00    -0.245 OA
HETATM   13  N   UNL     1       6.569  10.189  22.828  0.00  0.00    -0.241 N 
BRANCH  13  14
HETATM   14  C   UNL     1       5.440  10.894  23.281  0.00  0.00     0.084 A 
HETATM   15  C   UNL     1       5.259  11.058  24.663  0.00  0.00     0.033 A 
HETATM   16  C   UNL     1       4.229  11.864  25.154  0.00  0.00     0.002 A 
HETATM   17  C   UNL     1       3.344  12.479  24.269  0.00  0.00     0.003 A 
HETATM   18  C   UNL     1       3.476  12.270  22.898  0.00  0.00     0.044 A 
HETATM   19  C   UNL     1       4.517  11.476  22.415  0.00  0.00     0.143 A 
HETATM   20  F   UNL     1       4.611  11.284  21.090  0.00  0.00    -0.204 F 
ENDBRANCH  13  14
ENDBRANCH   4   7
BRANCH   3  21
HETATM   21  O   UNL     1       8.078  11.801  19.623  0.00  0.00    -0.360 OA
HETATM   22  H   UNL     1       7.895  12.356  18.849  0.00  0.00     0.217 HD
ENDBRANCH   3  21
BRANCH   6  23
HETATM   23  C   UNL     1       8.541  15.155  24.193  0.00  0.00     0.046 C 
BRANCH  23  24
HETATM   24  C   UNL     1       7.574  14.689  25.295  0.00  0.00     0.043 C 
BRANCH  24  25
HETATM   25  C   UNL     1       6.146  15.135  25.088  0.00  0.00    -0.058 A 
HETATM   26  C   UNL     1       5.276  15.242  26.183  0.00  0.00     0.007 A 
HETATM   27  C   UNL     1       3.976  15.721  26.011  0.00  0.00     0.001 A 
HETATM   28  C   UNL     1       3.531  16.089  24.742  0.00  0.00     0.000 A 
HETATM   29  C   UNL     1       4.383  15.971  23.644  0.00  0.00     0.001 A 
HETATM   30  C   UNL     1       5.684  15.493  23.816  0.00  0.00     0.007 A 
ENDBRANCH  24  25
ENDBRANCH  23  24
ENDBRANCH   6  23
BRANCH   1  31
HETATM   31  O   UNL     1       8.990  16.084  21.440  0.00  0.00    -0.360 OA
HETATM   32  H   UNL     1       9.687  16.174  20.770  0.00  0.00     0.217 HD
ENDBRANCH   1  31
TORSDOF 7
ENDMDL
MODEL 8
REMARK VINA RESULT:    -8.320      1.916      4.551
REMARK INTER + INTRA:         -13.465
REMARK INTER:                 -10.959
REMARK INTRA:                  -2.505
REMARK UNBOUND:                -2.226
REMARK  7 active torsions:
REMARK  status: ('A' for Active; 'I' for Inactive)
REMARK    1  A    between atoms: O_1  and  C_2 
REMARK    2  A    between atoms: C_4  and  O_5 
REMARK    3  A    between atoms: C_6  and  C_17 
REMARK    4  A    between atoms: C_8  and  C_9 
REMARK    5  A    between atoms: C_9  and  C_10 
REMARK    6  A    between atoms: C_10  and  C_11 
REMARK    7  A    between atoms: N_23  and  C_24 
ROOT
HETATM    1  C   UNL     1       4.861  10.331  21.601  0.00  0.00     0.074 C 
HETATM    2  C   UNL     1       5.953  10.197  20.746  0.00  0.00     0.074 C 
HETATM    3  C   UNL     1       6.894  11.226  20.652  0.00  0.00     0.082 C 
HETATM    4  C   UNL     1       6.716  12.432  21.351  0.00  0.00     0.046 C 
HETATM    5  C   UNL     1       5.535  12.579  22.099  0.00  0.00     0.028 C 
HETATM    6  C   UNL     1       4.660  11.500  22.336  0.00  0.00    -0.024 C 
ENDROOT
BRANCH   4   7
HETATM    7  C   UNL     1       7.762  13.507  21.301  0.00  0.00     0.172 A 
HETATM    8  N   UNL     1       8.258  13.939  20.169  0.00  0.00    -0.151 NA
HETATM    9  N   UNL     1       9.129  14.924  20.511  0.00  0.00    -0.226 N 
HETATM   10  H   UNL     1       9.740  15.371  19.841  0.00  0.00     0.194 HD
HETATM   11  C   UNL     1       9.167  15.095  21.885  0.00  0.00     0.349 A 
HETATM   12  O   UNL     1       9.903  15.869  22.476  0.00  0.00    -0.245 OA
HETATM   13  N   UNL     1       8.264  14.182  22.393  0.00  0.00    -0.241 N 
BRANCH  13  14
HETATM   14  C   UNL     1       8.080  14.004  23.776  0.00  0.00     0.084 A 
HETATM   15  C   UNL     1       7.234  14.889  24.461  0.00  0.00     0.033 A 
HETATM   16  C   UNL     1       6.917  14.671  25.804  0.00  0.00     0.002 A 
HETATM   17  C   UNL     1       7.474  13.588  26.485  0.00  0.00     0.003 A 
HETATM   18  C   UNL     1       8.365  12.742  25.831  0.00  0.00     0.044 A 
HETATM   19  C   UNL     1       8.666  12.958  24.485  0.00  0.00     0.143 A 
HETATM   20  F   UNL     1       9.537  12.131  23.885  0.00  0.00    -0.204 F 
ENDBRANCH  13  14
ENDBRANCH   4   7
BRANCH   3  21
HETATM   21  O   UNL     1       7.998  11.013  19.874  0.00  0.00    -0.360 OA
HETATM   22  H   UNL     1       8.703  11.638  20.099  0.00  0.00     0.217 HD
ENDBRANCH   3  21
BRANCH   6  23
HETATM   23  C   UNL     1       3.582  11.674  23.397  0.00  0.00     0.046 C 
BRANCH  23  24
HETATM   24  C   UNL     1       2.641  12.872  23.182  0.00  0.00     0.043 C 
BRANCH  24  25
HETATM   25  C   UNL     1       2.923  14.047  24.088  0.00  0.00    -0.058 A 
HETATM   26  C   UNL     1       2.545  14.003  25.437  0.00  0.00     0.007 A 
HETATM   27  C   UNL     1       2.865  15.054  26.297  0.00  0.00     0.001 A 
HETATM   28  C   UNL     1       3.557  16.163  25.814  0.00  0.00     0.000 A 
HETATM   29  C   UNL     1       3.924  16.225  24.470  0.00  0.00     0.001 A 
HETATM   30  C   UNL     1       3.606  15.172  23.609  0.00  0.00     0.007 A 
ENDBRANCH  24  25
ENDBRANCH  23  24
ENDBRANCH   6  23
BRANCH   1  31
HETATM   31  O   UNL     1       3.979   9.297  21.713  0.00  0.00    -0.360 OA
HETATM   32  H   UNL     1       3.090   9.598  21.467  0.00  0.00     0.217 HD
ENDBRANCH   1  31
TORSDOF 7
ENDMDL
MODEL 9
REMARK VINA RESULT:    -8.171      2.554      5.216
REMARK INTER + INTRA:         -13.263
REMARK INTER:                 -11.037
REMARK INTRA:                  -2.226
REMARK UNBOUND:                -2.226
REMARK  7 active torsions:
REMARK  status: ('A' for Active; 'I' for Inactive)
REMARK    1  A    between atoms: O_1  and  C_2 
REMARK    2  A    between atoms: C_4  and  O_5 
REMARK    3  A    between atoms: C_6  and  C_17 
REMARK    4  A    between atoms: C_8  and  C_9 
REMARK    5  A    between atoms: C_9  and  C_10 
REMARK    6  A    between atoms: C_10  and  C_11 
REMARK    7  A    between atoms: N_23  and  C_24 
ROOT
HETATM    1  C   UNL     1       5.058  10.438  21.490  0.00  0.00     0.074 C 
HETATM    2  C   UNL     1       6.106  10.974  20.746  0.00  0.00     0.074 C 
HETATM    3  C   UNL     1       7.034  11.820  21.359  0.00  0.00     0.082 C 
HETATM    4  C   UNL     1       6.884  12.203  22.702  0.00  0.00     0.046 C 
HETATM    5  C   UNL     1       5.741  11.748  23.381  0.00  0.00     0.028 C 
HETATM    6  C   UNL     1       4.885  10.770  22.835  0.00  0.00    -0.024 C 
ENDROOT
BRANCH   4   7
HETATM    7  C   UNL     1       7.919  13.056  23.375  0.00  0.00     0.172 A 
HETATM    8  N   UNL     1       9.193  12.758  23.340  0.00  0.00    -0.151 NA
HETATM    9  N   UNL     1       9.816  13.764  24.009  0.00  0.00    -0.226 N 
HETATM   10  H   UNL     1      10.802  13.744  24.230  0.00  0.00     0.194 HD
HETATM   11  C   UNL     1       8.899  14.695  24.466  0.00  0.00     0.349 A 
HETATM   12  O   UNL     1       9.170  15.671  25.148  0.00  0.00    -0.245 OA
HETATM   13  N   UNL     1       7.668  14.240  24.037  0.00  0.00    -0.241 N 
BRANCH  13  14
HETATM   14  C   UNL     1       6.470  14.890  24.381  0.00  0.00     0.084 A 
HETATM   15  C   UNL     1       5.758  15.563  23.375  0.00  0.00     0.033 A 
HETATM   16  C   UNL     1       4.498  16.107  23.640  0.00  0.00     0.002 A 
HETATM   17  C   UNL     1       3.957  16.020  24.923  0.00  0.00     0.003 A 
HETATM   18  C   UNL     1       4.685  15.412  25.943  0.00  0.00     0.044 A 
HETATM   19  C   UNL     1       5.936  14.857  25.666  0.00  0.00     0.143 A 
HETATM   20  F   UNL     1       6.617  14.287  26.673  0.00  0.00    -0.204 F 
ENDBRANCH  13  14
ENDBRANCH   4   7
BRANCH   3  21
HETATM   21  O   UNL     1       8.100  12.244  20.614  0.00  0.00    -0.360 OA
HETATM   22  H   UNL     1       8.929  12.124  21.101  0.00  0.00     0.217 HD
ENDBRANCH   3  21
BRANCH   6  23
HETATM   23  C   UNL     1       3.861  10.122  23.757  0.00  0.00     0.046 C 
BRANCH  23  24
HETATM   24  C   UNL     1       3.266  11.052  24.828  0.00  0.00     0.043 C 
BRANCH  24  25
HETATM   25  C   UNL     1       2.001  11.756  24.397  0.00  0.00    -0.058 A 
HETATM   26  C   UNL     1       2.064  13.045  23.850  0.00  0.00     0.007 A 
HETATM   27  C   UNL     1       0.909  13.675  23.384  0.00  0.00     0.001 A 
HETATM   28  C   UNL     1      -0.321  13.025  23.470  0.00  0.00     0.000 A 
HETATM   29  C   UNL     1      -0.398  11.749  24.027  0.00  0.00     0.001 A 
HETATM   30  C   UNL     1       0.758  11.118  24.492  0.00  0.00     0.007 A 
ENDBRANCH  24  25
ENDBRANCH  23  24
ENDBRANCH   6  23
BRANCH   1  31
HETATM   31  O   UNL     1       4.189   9.578  20.886  0.00  0.00    -0.360 OA
HETATM   32  H   UNL     1       3.306   9.980  20.846  0.00  0.00     0.217 HD
ENDBRANCH   1  31
TORSDOF 7
ENDMDL
