MODEL 1
REMARK VINA RESULT:    -9.168      0.000      0.000
REMARK INTER + INTRA:         -14.312
REMARK INTER:                 -12.911
REMARK INTRA:                  -1.400
REMARK UNBOUND:                -1.928
REMARK  7 active torsions:
REMARK  status: ('A' for Active; 'I' for Inactive)
REMARK    1  A    between atoms: C_7  and  N_8 
REMARK    2  A    between atoms: C_14  and  C_15 
REMARK    3  A    between atoms: C_16  and  O_17 
REMARK    4  A    between atoms: C_19  and  O_20 
REMARK    5  A    between atoms: C_22  and  C_23 
REMARK       I    between atoms: C_23  and  N_25 
REMARK    6  A    between atoms: N_25  and  C_27 
REMARK    7  A    between atoms: C_27  and  C_28 
ROOT
HETATM    1  C   UNL     1      -1.794  15.630  20.739  0.00  0.00     0.046 C 
HETATM    2  C   UNL     1      -3.047  16.224  20.460  0.00  0.00     0.082 C 
HETATM    3  C   UNL     1      -4.248  15.575  20.725  0.00  0.00     0.075 C 
HETATM    4  C   UNL     1      -4.242  14.328  21.337  0.00  0.00     0.084 C 
HETATM    5  C   UNL     1      -1.809  14.349  21.351  0.00  0.00     0.038 C 
HETATM    6  C   UNL     1      -3.039  13.741  21.758  0.00  0.00     0.066 C 
ENDROOT
BRANCH   1   7
HETATM    7  C   UNL     1      -0.579  16.469  20.415  0.00  0.00     0.172 A 
HETATM    8  N   UNL     1       0.691  16.400  20.932  0.00  0.00    -0.244 N 
HETATM    9  C   UNL     1       1.402  17.427  20.316  0.00  0.00     0.349 A 
HETATM   10  O   UNL     1       2.533  17.846  20.528  0.00  0.00    -0.245 OA
HETATM   11  N   UNL     1       0.516  18.014  19.433  0.00  0.00    -0.226 N 
HETATM   12  H   UNL     1       0.686  18.879  18.940  0.00  0.00     0.194 HD
HETATM   13  N   UNL     1      -0.702  17.429  19.520  0.00  0.00    -0.151 NA
BRANCH   8  14
HETATM   14  C   UNL     1       1.261  15.718  22.023  0.00  0.00     0.051 A 
HETATM   15  C   UNL     1       2.103  14.599  21.893  0.00  0.00    -0.035 A 
HETATM   16  C   UNL     1       2.330  13.896  20.583  0.00  0.00     0.050 C 
HETATM   17  C   UNL     1       2.584  13.980  23.059  0.00  0.00     0.009 A 
HETATM   18  C   UNL     1       2.179  14.394  24.331  0.00  0.00     0.001 A 
HETATM   19  C   UNL     1       1.277  15.444  24.451  0.00  0.00     0.002 A 
HETATM   20  C   UNL     1       0.823  16.093  23.315  0.00  0.00     0.031 A 
ENDBRANCH   8  14
ENDBRANCH   1   7
BRANCH   2  21
HETATM   21  O   UNL     1      -3.214  17.482  19.935  0.00  0.00    -0.360 OA
HETATM   22  H   UNL     1      -3.556  17.393  19.018  0.00  0.00     0.217 HD
ENDBRANCH   2  21
BRANCH   6  23
HETATM   23  C   UNL     1      -3.040  12.533  22.680  0.00  0.00     0.256 C 
HETATM   24  O   UNL     1      -2.942  11.420  22.150  0.00  0.00    -0.267 OA
HETATM   25  N   UNL     1      -3.083  12.692  24.099  0.00  0.00    -0.350 N 
HETATM   26  C   UNL     1      -3.179  13.992  24.746  0.00  0.00     0.153 C 
BRANCH  25  27
HETATM   27  C   UNL     1      -3.372  11.515  24.984  0.00  0.00     0.157 C 
BRANCH  27  28
HETATM   28  C   UNL     1      -4.884  11.136  25.144  0.00  0.00     0.139 C 
HETATM   29  O   UNL     1      -5.375  10.387  24.006  0.00  0.00    -0.384 OA
HETATM   30  C   UNL     1      -6.632   9.822  24.382  0.00  0.00     0.168 C 
HETATM   31  C   UNL     1      -6.531   9.533  25.864  0.00  0.00     0.029 C 
HETATM   32  C   UNL     1      -5.236  10.208  26.303  0.00  0.00     0.035 C 
ENDBRANCH  27  28
ENDBRANCH  25  27
ENDBRANCH   6  23
BRANCH   4  33
HETATM   33  O   UNL     1      -5.445  13.713  21.548  0.00  0.00    -0.360 OA
HETATM   34  H   UNL     1      -5.626  13.682  22.504  0.00  0.00     0.217 HD
ENDBRANCH   4  33
TORSDOF 7
ENDMDL
MODEL 2
REMARK VINA RESULT:    -8.779      1.441      2.019
REMARK INTER + INTRA:         -13.786
REMARK INTER:                 -12.217
REMARK INTRA:                  -1.569
REMARK UNBOUND:                -1.928
REMARK  7 active torsions:
REMARK  status: ('A' for Active; 'I' for Inactive)
REMARK    1  A    between atoms: C_7  and  N_8 
REMARK    2  A    between atoms: C_14  and  C_15 
REMARK    3  A    between atoms: C_16  and  O_17 
REMARK    4  A    between atoms: C_19  and  O_20 
REMARK    5  A    between atoms: C_22  and  C_23 
REMARK       I    between atoms: C_23  and  N_25 
REMARK    6  A    between atoms: N_25  and  C_27 
REMARK    7  A    between atoms: C_27  and  C_28 
ROOT
HETATM    1  C   UNL     1      -1.917  15.532  20.874  0.00  0.00     0.046 C 
HETATM    2  C   UNL     1      -3.178  16.101  20.577  0.00  0.00     0.082 C 
HETATM    3  C   UNL     1      -4.370  15.448  20.870  0.00  0.00     0.075 C 
HETATM    4  C   UNL     1      -4.348  14.224  21.525  0.00  0.00     0.084 C 
HETATM    5  C   UNL     1      -1.915  14.274  21.531  0.00  0.00     0.038 C 
HETATM    6  C   UNL     1      -3.137  13.666  21.963  0.00  0.00     0.066 C 
ENDROOT
BRANCH   1   7
HETATM    7  C   UNL     1      -0.713  16.373  20.516  0.00  0.00     0.172 A 
HETATM    8  N   UNL     1       0.569  16.314  21.006  0.00  0.00    -0.244 N 
HETATM    9  C   UNL     1       1.261  17.339  20.365  0.00  0.00     0.349 A 
HETATM   10  O   UNL     1       2.396  17.764  20.550  0.00  0.00    -0.245 OA
HETATM   11  N   UNL     1       0.354  17.913  19.497  0.00  0.00    -0.226 N 
HETATM   12  H   UNL     1       0.510  18.775  18.992  0.00  0.00     0.194 HD
HETATM   13  N   UNL     1      -0.858  17.324  19.615  0.00  0.00    -0.151 NA
BRANCH   8  14
HETATM   14  C   UNL     1       1.165  15.645  22.092  0.00  0.00     0.051 A 
HETATM   15  C   UNL     1       2.035  14.550  21.952  0.00  0.00    -0.035 A 
HETATM   16  C   UNL     1       2.272  13.856  20.639  0.00  0.00     0.050 C 
HETATM   17  C   UNL     1       2.541  13.940  23.113  0.00  0.00     0.009 A 
HETATM   18  C   UNL     1       2.134  14.340  24.389  0.00  0.00     0.001 A 
HETATM   19  C   UNL     1       1.205  15.365  24.518  0.00  0.00     0.002 A 
HETATM   20  C   UNL     1       0.726  16.004  23.387  0.00  0.00     0.031 A 
ENDBRANCH   8  14
ENDBRANCH   1   7
BRANCH   2  21
HETATM   21  O   UNL     1      -3.361  17.338  20.009  0.00  0.00    -0.360 OA
HETATM   22  H   UNL     1      -2.478  17.728  19.823  0.00  0.00     0.217 HD
ENDBRANCH   2  21
BRANCH   6  23
HETATM   23  C   UNL     1      -3.121  12.492  22.928  0.00  0.00     0.256 C 
HETATM   24  O   UNL     1      -3.249  11.362  22.442  0.00  0.00    -0.267 OA
HETATM   25  N   UNL     1      -2.897  12.691  24.325  0.00  0.00    -0.350 N 
HETATM   26  C   UNL     1      -2.723  14.009  24.917  0.00  0.00     0.153 C 
BRANCH  25  27
HETATM   27  C   UNL     1      -3.166  11.583  25.300  0.00  0.00     0.157 C 
BRANCH  27  28
HETATM   28  C   UNL     1      -1.903  10.931  25.959  0.00  0.00     0.139 C 
HETATM   29  O   UNL     1      -2.240  10.201  27.163  0.00  0.00    -0.384 OA
HETATM   30  C   UNL     1      -1.109   9.395  27.500  0.00  0.00     0.168 C 
HETATM   31  C   UNL     1      -0.467   9.011  26.184  0.00  0.00     0.029 C 
HETATM   32  C   UNL     1      -1.178   9.867  25.142  0.00  0.00     0.035 C 
ENDBRANCH  27  28
ENDBRANCH  25  27
ENDBRANCH   6  23
BRANCH   4  33
HETATM   33  O   UNL     1      -5.543  13.602  21.762  0.00  0.00    -0.360 OA
HETATM   34  H   UNL     1      -6.119  14.198  22.273  0.00  0.00     0.217 HD
ENDBRANCH   4  33
TORSDOF 7
ENDMDL
MODEL 3
REMARK VINA RESULT:    -8.573      2.252      7.309
REMARK INTER + INTRA:         -13.508
REMARK INTER:                 -11.990
REMARK INTRA:                  -1.518
REMARK UNBOUND:                -1.928
REMARK  7 active torsions:
REMARK  status: ('A' for Active; 'I' for Inactive)
REMARK    1  A    between atoms: C_7  and  N_8 
REMARK    2  A    between atoms: C_14  and  C_15 
REMARK    3  A    between atoms: C_16  and  O_17 
REMARK    4  A    between atoms: C_19  and  O_20 
REMARK    5  A    between atoms: C_22  and  C_23 
REMARK       I    between atoms: C_23  and  N_25 
REMARK    6  A    between atoms: N_25  and  C_27 
REMARK    7  A    between atoms: C_27  and  C_28 
ROOT
HETATM    1  C   UNL     1      -3.045  14.277  23.331  0.00  0.00     0.046 C 
HETATM    2  C   UNL     1      -3.937  14.380  22.237  0.00  0.00     0.082 C 
HETATM    3  C   UNL     1      -3.696  15.232  21.165  0.00  0.00     0.075 C 
HETATM    4  C   UNL     1      -2.521  15.971  21.117  0.00  0.00     0.084 C 
HETATM    5  C   UNL     1      -1.857  15.050  23.269  0.00  0.00     0.038 C 
HETATM    6  C   UNL     1      -1.536  15.817  22.104  0.00  0.00     0.066 C 
ENDROOT
BRANCH   1   7
HETATM    7  C   UNL     1      -3.434  13.291  24.409  0.00  0.00     0.172 A 
HETATM    8  N   UNL     1      -2.724  12.232  24.919  0.00  0.00    -0.244 N 
HETATM    9  C   UNL     1      -3.565  11.637  25.857  0.00  0.00     0.349 A 
HETATM   10  O   UNL     1      -3.433  10.596  26.491  0.00  0.00    -0.245 OA
HETATM   11  N   UNL     1      -4.708  12.412  25.877  0.00  0.00    -0.226 N 
HETATM   12  H   UNL     1      -5.564  12.160  26.351  0.00  0.00     0.194 HD
HETATM   13  N   UNL     1      -4.622  13.412  24.968  0.00  0.00    -0.151 NA
BRANCH   8  14
HETATM   14  C   UNL     1      -1.542  11.576  24.529  0.00  0.00     0.051 A 
HETATM   15  C   UNL     1      -1.324  11.062  23.239  0.00  0.00    -0.035 A 
HETATM   16  C   UNL     1      -2.403  10.990  22.194  0.00  0.00     0.050 C 
HETATM   17  C   UNL     1      -0.115  10.393  22.977  0.00  0.00     0.009 A 
HETATM   18  C   UNL     1       0.825  10.156  23.983  0.00  0.00     0.001 A 
HETATM   19  C   UNL     1       0.563  10.588  25.277  0.00  0.00     0.002 A 
HETATM   20  C   UNL     1      -0.604  11.284  25.546  0.00  0.00     0.031 A 
ENDBRANCH   8  14
ENDBRANCH   1   7
BRANCH   2  21
HETATM   21  O   UNL     1      -5.094  13.652  22.103  0.00  0.00    -0.360 OA
HETATM   22  H   UNL     1      -5.858  14.257  22.236  0.00  0.00     0.217 HD
ENDBRANCH   2  21
BRANCH   6  23
HETATM   23  C   UNL     1      -0.140  16.387  21.911  0.00  0.00     0.256 C 
HETATM   24  O   UNL     1       0.013  17.593  22.141  0.00  0.00    -0.267 OA
HETATM   25  N   UNL     1       0.955  15.544  21.546  0.00  0.00    -0.350 N 
HETATM   26  C   UNL     1       0.803  14.120  21.289  0.00  0.00     0.153 C 
BRANCH  25  27
HETATM   27  C   UNL     1       2.249  16.144  21.080  0.00  0.00     0.157 C 
BRANCH  27  28
HETATM   28  C   UNL     1       3.527  15.264  21.296  0.00  0.00     0.139 C 
HETATM   29  O   UNL     1       4.710  15.887  20.742  0.00  0.00    -0.384 OA
HETATM   30  C   UNL     1       5.841  15.186  21.262  0.00  0.00     0.168 C 
HETATM   31  C   UNL     1       5.446  14.734  22.651  0.00  0.00     0.029 C 
HETATM   32  C   UNL     1       3.951  15.020  22.741  0.00  0.00     0.035 C 
ENDBRANCH  27  28
ENDBRANCH  25  27
ENDBRANCH   6  23
BRANCH   4  33
HETATM   33  O   UNL     1      -2.341  16.821  20.060  0.00  0.00    -0.360 OA
HETATM   34  H   UNL     1      -2.667  16.396  19.248  0.00  0.00     0.217 HD
ENDBRANCH   4  33
TORSDOF 7
ENDMDL
MODEL 4
REMARK VINA RESULT:    -8.252      1.739      2.624
REMARK INTER + INTRA:         -13.074
REMARK INTER:                 -11.909
REMARK INTRA:                  -1.165
REMARK UNBOUND:                -1.928
REMARK  7 active torsions:
REMARK  status: ('A' for Active; 'I' for Inactive)
REMARK    1  A    between atoms: C_7  and  N_8 
REMARK    2  A    between atoms: C_14  and  C_15 
REMARK    3  A    between atoms: C_16  and  O_17 
REMARK    4  A    between atoms: C_19  and  O_20 
REMARK    5  A    between atoms: C_22  and  C_23 
REMARK       I    between atoms: C_23  and  N_25 
REMARK    6  A    between atoms: N_25  and  C_27 
REMARK    7  A    between atoms: C_27  and  C_28 
ROOT
HETATM    1  C   UNL     1      -1.955  15.713  20.917  0.00  0.00     0.046 C 
HETATM    2  C   UNL     1      -3.122  15.895  20.137  0.00  0.00     0.082 C 
HETATM    3  C   UNL     1      -4.307  15.220  20.411  0.00  0.00     0.075 C 
HETATM    4  C   UNL     1      -4.388  14.382  21.514  0.00  0.00     0.084 C 
HETATM    5  C   UNL     1      -2.055  14.840  22.032  0.00  0.00     0.038 C 
HETATM    6  C   UNL     1      -3.308  14.258  22.403  0.00  0.00     0.066 C 
ENDROOT
BRANCH   1   7
HETATM    7  C   UNL     1      -0.753  16.532  20.508  0.00  0.00     0.172 A 
HETATM    8  N   UNL     1       0.550  16.440  20.932  0.00  0.00    -0.244 N 
HETATM    9  C   UNL     1       1.231  17.458  20.267  0.00  0.00     0.349 A 
HETATM   10  O   UNL     1       2.382  17.857  20.398  0.00  0.00    -0.245 OA
HETATM   11  N   UNL     1       0.294  18.061  19.452  0.00  0.00    -0.226 N 
HETATM   12  H   UNL     1       0.443  18.925  18.948  0.00  0.00     0.194 HD
HETATM   13  N   UNL     1      -0.923  17.496  19.625  0.00  0.00    -0.151 NA
BRANCH   8  14
HETATM   14  C   UNL     1       1.185  15.747  21.979  0.00  0.00     0.051 A 
HETATM   15  C   UNL     1       1.945  14.578  21.793  0.00  0.00    -0.035 A 
HETATM   16  C   UNL     1       2.001  13.838  20.485  0.00  0.00     0.050 C 
HETATM   17  C   UNL     1       2.503  13.953  22.922  0.00  0.00     0.009 A 
HETATM   18  C   UNL     1       2.249  14.414  24.217  0.00  0.00     0.001 A 
HETATM   19  C   UNL     1       1.424  15.517  24.399  0.00  0.00     0.002 A 
HETATM   20  C   UNL     1       0.898  16.170  23.297  0.00  0.00     0.031 A 
ENDBRANCH   8  14
ENDBRANCH   1   7
BRANCH   2  21
HETATM   21  O   UNL     1      -3.219  16.753  19.069  0.00  0.00    -0.360 OA
HETATM   22  H   UNL     1      -2.329  16.842  18.660  0.00  0.00     0.217 HD
ENDBRANCH   2  21
BRANCH   6  23
HETATM   23  C   UNL     1      -3.482  13.585  23.755  0.00  0.00     0.256 C 
HETATM   24  O   UNL     1      -4.350  14.046  24.506  0.00  0.00    -0.267 OA
HETATM   25  N   UNL     1      -2.718  12.429  24.104  0.00  0.00    -0.350 N 
HETATM   26  C   UNL     1      -1.706  11.858  23.229  0.00  0.00     0.153 C 
BRANCH  25  27
HETATM   27  C   UNL     1      -2.681  11.948  25.525  0.00  0.00     0.157 C 
BRANCH  27  28
HETATM   28  C   UNL     1      -1.922  12.869  26.539  0.00  0.00     0.139 C 
HETATM   29  O   UNL     1      -1.382  14.048  25.895  0.00  0.00    -0.384 OA
HETATM   30  C   UNL     1      -1.004  14.959  26.929  0.00  0.00     0.168 C 
HETATM   31  C   UNL     1      -1.987  14.737  28.058  0.00  0.00     0.029 C 
HETATM   32  C   UNL     1      -2.755  13.480  27.661  0.00  0.00     0.035 C 
ENDBRANCH  27  28
ENDBRANCH  25  27
ENDBRANCH   6  23
BRANCH   4  33
HETATM   33  O   UNL     1      -5.562  13.714  21.726  0.00  0.00    -0.360 OA
HETATM   34  H   UNL     1      -5.696  13.596  22.683  0.00  0.00     0.217 HD
ENDBRANCH   4  33
TORSDOF 7
ENDMDL
MODEL 5
REMARK VINA RESULT:    -8.184      1.957      6.769
REMARK INTER + INTRA:         -12.983
REMARK INTER:                 -11.532
REMARK INTRA:                  -1.451
REMARK UNBOUND:                -1.928
REMARK  7 active torsions:
REMARK  status: ('A' for Active; 'I' for Inactive)
REMARK    1  A    between atoms: C_7  and  N_8 
REMARK    2  A    between atoms: C_14  and  C_15 
REMARK    3  A    between atoms: C_16  and  O_17 
REMARK    4  A    between atoms: C_19  and  O_20 
REMARK    5  A    between atoms: C_22  and  C_23 
REMARK       I    between atoms: C_23  and  N_25 
REMARK    6  A    between atoms: N_25  and  C_27 
REMARK    7  A    between atoms: C_27  and  C_28 
ROOT
HETATM    1  C   UNL     1      -2.976  14.283  21.959  0.00  0.00     0.046 C 
HETATM    2  C   UNL     1      -4.221  14.585  21.356  0.00  0.00     0.082 C 
HETATM    3  C   UNL     1      -4.394  15.696  20.537  0.00  0.00     0.075 C 
HETATM    4  C   UNL     1      -3.313  16.516  20.242  0.00  0.00     0.084 C 
HETATM    5  C   UNL     1      -1.887  15.142  21.656  0.00  0.00     0.038 C 
HETATM    6  C   UNL     1      -2.026  16.199  20.703  0.00  0.00     0.066 C 
ENDROOT
BRANCH   1   7
HETATM    7  C   UNL     1      -2.940  13.030  22.804  0.00  0.00     0.172 A 
HETATM    8  N   UNL     1      -2.507  12.863  24.096  0.00  0.00    -0.244 N 
HETATM    9  C   UNL     1      -2.656  11.505  24.367  0.00  0.00     0.349 A 
HETATM   10  O   UNL     1      -2.301  10.847  25.337  0.00  0.00    -0.245 OA
HETATM   11  N   UNL     1      -3.215  10.958  23.228  0.00  0.00    -0.226 N 
HETATM   12  H   UNL     1      -3.314   9.967  23.056  0.00  0.00     0.194 HD
HETATM   13  N   UNL     1      -3.365  11.902  22.270  0.00  0.00    -0.151 NA
BRANCH   8  14
HETATM   14  C   UNL     1      -1.793  13.677  24.996  0.00  0.00     0.051 A 
HETATM   15  C   UNL     1      -0.436  14.010  24.839  0.00  0.00    -0.035 A 
HETATM   16  C   UNL     1       0.446  13.379  23.798  0.00  0.00     0.050 C 
HETATM   17  C   UNL     1       0.179  14.803  25.823  0.00  0.00     0.009 A 
HETATM   18  C   UNL     1      -0.498  15.190  26.983  0.00  0.00     0.001 A 
HETATM   19  C   UNL     1      -1.812  14.781  27.174  0.00  0.00     0.002 A 
HETATM   20  C   UNL     1      -2.447  14.034  26.197  0.00  0.00     0.031 A 
ENDBRANCH   8  14
ENDBRANCH   1   7
BRANCH   2  21
HETATM   21  O   UNL     1      -5.355  13.823  21.486  0.00  0.00    -0.360 OA
HETATM   22  H   UNL     1      -5.689  13.607  20.587  0.00  0.00     0.217 HD
ENDBRANCH   2  21
BRANCH   6  23
HETATM   23  C   UNL     1      -0.801  16.912  20.151  0.00  0.00     0.256 C 
HETATM   24  O   UNL     1      -0.820  17.219  18.953  0.00  0.00    -0.267 OA
HETATM   25  N   UNL     1       0.289  17.267  21.004  0.00  0.00    -0.350 N 
HETATM   26  C   UNL     1       0.325  16.933  22.420  0.00  0.00     0.153 C 
BRANCH  25  27
HETATM   27  C   UNL     1       1.599  17.702  20.416  0.00  0.00     0.157 C 
BRANCH  27  28
HETATM   28  C   UNL     1       2.733  16.621  20.399  0.00  0.00     0.139 C 
HETATM   29  O   UNL     1       3.505  16.631  21.624  0.00  0.00    -0.384 OA
HETATM   30  C   UNL     1       4.279  15.430  21.646  0.00  0.00     0.168 C 
HETATM   31  C   UNL     1       3.442  14.384  20.942  0.00  0.00     0.029 C 
HETATM   32  C   UNL     1       2.286  15.164  20.324  0.00  0.00     0.035 C 
ENDBRANCH  27  28
ENDBRANCH  25  27
ENDBRANCH   6  23
BRANCH   4  33
HETATM   33  O   UNL     1      -3.537  17.616  19.461  0.00  0.00    -0.360 OA
HETATM   34  H   UNL     1      -4.233  18.162  19.867  0.00  0.00     0.217 HD
ENDBRANCH   4  33
TORSDOF 7
ENDMDL
MODEL 6
REMARK VINA RESULT:    -8.141      2.614      7.825
REMARK INTER + INTRA:         -12.924
REMARK INTER:                 -11.152
REMARK INTRA:                  -1.772
REMARK UNBOUND:                -1.928
REMARK  7 active torsions:
REMARK  status: ('A' for Active; 'I' for Inactive)
REMARK    1  A    between atoms: C_7  and  N_8 
REMARK    2  A    between atoms: C_14  and  C_15 
REMARK    3  A    between atoms: C_16  and  O_17 
REMARK    4  A    between atoms: C_19  and  O_20 
REMARK    5  A    between atoms: C_22  and  C_23 
REMARK       I    between atoms: C_23  and  N_25 
REMARK    6  A    between atoms: N_25  and  C_27 
REMARK    7  A    between atoms: C_27  and  C_28 
ROOT
HETATM    1  C   UNL     1      -2.045  13.471  26.039  0.00  0.00     0.046 C 
HETATM    2  C   UNL     1      -2.122  14.141  27.283  0.00  0.00     0.082 C 
HETATM    3  C   UNL     1      -1.143  15.036  27.701  0.00  0.00     0.075 C 
HETATM    4  C   UNL     1      -0.079  15.342  26.863  0.00  0.00     0.084 C 
HETATM    5  C   UNL     1      -0.942  13.786  25.203  0.00  0.00     0.038 C 
HETATM    6  C   UNL     1      -0.012  14.812  25.566  0.00  0.00     0.066 C 
ENDROOT
BRANCH   1   7
HETATM    7  C   UNL     1      -3.196  12.546  25.716  0.00  0.00     0.172 A 
HETATM    8  N   UNL     1      -3.656  12.121  24.494  0.00  0.00    -0.244 N 
HETATM    9  C   UNL     1      -4.760  11.316  24.770  0.00  0.00     0.349 A 
HETATM   10  O   UNL     1      -5.576  10.805  24.012  0.00  0.00    -0.245 OA
HETATM   11  N   UNL     1      -4.856  11.277  26.147  0.00  0.00    -0.226 N 
HETATM   12  H   UNL     1      -5.639  10.892  26.657  0.00  0.00     0.194 HD
HETATM   13  N   UNL     1      -3.902  12.053  26.714  0.00  0.00    -0.151 NA
BRANCH   8  14
HETATM   14  C   UNL     1      -3.394  12.510  23.167  0.00  0.00     0.051 A 
HETATM   15  C   UNL     1      -2.477  11.854  22.327  0.00  0.00    -0.035 A 
HETATM   16  C   UNL     1      -1.538  10.786  22.817  0.00  0.00     0.050 C 
HETATM   17  C   UNL     1      -2.273  12.358  21.031  0.00  0.00     0.009 A 
HETATM   18  C   UNL     1      -2.891  13.532  20.594  0.00  0.00     0.001 A 
HETATM   19  C   UNL     1      -3.728  14.225  21.460  0.00  0.00     0.002 A 
HETATM   20  C   UNL     1      -3.972  13.724  22.727  0.00  0.00     0.031 A 
ENDBRANCH   8  14
ENDBRANCH   1   7
BRANCH   2  21
HETATM   21  O   UNL     1      -3.154  14.006  28.178  0.00  0.00    -0.360 OA
HETATM   22  H   UNL     1      -2.772  13.881  29.076  0.00  0.00     0.217 HD
ENDBRANCH   2  21
BRANCH   6  23
HETATM   23  C   UNL     1       0.974  15.360  24.547  0.00  0.00     0.256 C 
HETATM   24  O   UNL     1       2.171  15.107  24.729  0.00  0.00    -0.267 OA
HETATM   25  N   UNL     1       0.521  16.078  23.398  0.00  0.00    -0.350 N 
HETATM   26  C   UNL     1      -0.883  16.371  23.153  0.00  0.00     0.153 C 
BRANCH  25  27
HETATM   27  C   UNL     1       1.492  16.856  22.560  0.00  0.00     0.157 C 
BRANCH  27  28
HETATM   28  C   UNL     1       2.249  16.042  21.456  0.00  0.00     0.139 C 
HETATM   29  O   UNL     1       3.530  15.559  21.926  0.00  0.00    -0.384 OA
HETATM   30  C   UNL     1       3.984  14.582  20.987  0.00  0.00     0.168 C 
HETATM   31  C   UNL     1       2.738  13.906  20.456  0.00  0.00     0.029 C 
HETATM   32  C   UNL     1       1.584  14.753  20.982  0.00  0.00     0.035 C 
ENDBRANCH  27  28
ENDBRANCH  25  27
ENDBRANCH   6  23
BRANCH   4  33
HETATM   33  O   UNL     1       0.877  16.202  27.329  0.00  0.00    -0.360 OA
HETATM   34  H   UNL     1       1.638  15.689  27.656  0.00  0.00     0.217 HD
ENDBRANCH   4  33
TORSDOF 7
ENDMDL
MODEL 7
REMARK VINA RESULT:    -7.959      1.422      2.509
REMARK INTER + INTRA:         -12.678
REMARK INTER:                 -11.325
REMARK INTRA:                  -1.353
REMARK UNBOUND:                -1.928
REMARK  7 active torsions:
REMARK  status: ('A' for Active; 'I' for Inactive)
REMARK    1  A    between atoms: C_7  and  N_8 
REMARK    2  A    between atoms: C_14  and  C_15 
REMARK    3  A    between atoms: C_16  and  O_17 
REMARK    4  A    between atoms: C_19  and  O_20 
REMARK    5  A    between atoms: C_22  and  C_23 
REMARK       I    between atoms: C_23  and  N_25 
REMARK    6  A    between atoms: N_25  and  C_27 
REMARK    7  A    between atoms: C_27  and  C_28 
ROOT
HETATM    1  C   UNL     1      -1.928  15.545  20.810  0.00  0.00     0.046 C 
HETATM    2  C   UNL     1      -3.206  16.112  20.591  0.00  0.00     0.082 C 
HETATM    3  C   UNL     1      -4.378  15.437  20.913  0.00  0.00     0.075 C 
HETATM    4  C   UNL     1      -4.316  14.191  21.523  0.00  0.00     0.084 C 
HETATM    5  C   UNL     1      -1.886  14.265  21.421  0.00  0.00     0.038 C 
HETATM    6  C   UNL     1      -3.081  13.631  21.885  0.00  0.00     0.066 C 
ENDROOT
BRANCH   1   7
HETATM    7  C   UNL     1      -0.749  16.411  20.429  0.00  0.00     0.172 A 
HETATM    8  N   UNL     1       0.567  16.309  20.811  0.00  0.00    -0.244 N 
HETATM    9  C   UNL     1       1.216  17.382  20.203  0.00  0.00     0.349 A 
HETATM   10  O   UNL     1       2.364  17.788  20.333  0.00  0.00    -0.245 OA
HETATM   11  N   UNL     1       0.248  18.028  19.459  0.00  0.00    -0.226 N 
HETATM   12  H   UNL     1       0.372  18.927  19.015  0.00  0.00     0.194 HD
HETATM   13  N   UNL     1      -0.956  17.433  19.623  0.00  0.00    -0.151 NA
BRANCH   8  14
HETATM   14  C   UNL     1       1.240  15.552  21.788  0.00  0.00     0.051 A 
HETATM   15  C   UNL     1       0.949  15.615  23.162  0.00  0.00    -0.035 A 
HETATM   16  C   UNL     1       0.019  16.637  23.755  0.00  0.00     0.050 C 
HETATM   17  C   UNL     1       1.714  14.837  24.048  0.00  0.00     0.009 A 
HETATM   18  C   UNL     1       2.801  14.077  23.606  0.00  0.00     0.001 A 
HETATM   19  C   UNL     1       3.139  14.089  22.258  0.00  0.00     0.002 A 
HETATM   20  C   UNL     1       2.372  14.818  21.365  0.00  0.00     0.031 A 
ENDBRANCH   8  14
ENDBRANCH   1   7
BRANCH   2  21
HETATM   21  O   UNL     1      -3.425  17.366  20.076  0.00  0.00    -0.360 OA
HETATM   22  H   UNL     1      -4.339  17.399  19.717  0.00  0.00     0.217 HD
ENDBRANCH   2  21
BRANCH   6  23
HETATM   23  C   UNL     1      -3.012  12.422  22.806  0.00  0.00     0.256 C 
HETATM   24  O   UNL     1      -3.081  11.307  22.277  0.00  0.00    -0.267 OA
HETATM   25  N   UNL     1      -2.806  12.580  24.211  0.00  0.00    -0.350 N 
HETATM   26  C   UNL     1      -2.703  13.882  24.853  0.00  0.00     0.153 C 
BRANCH  25  27
HETATM   27  C   UNL     1      -3.025  11.424  25.142  0.00  0.00     0.157 C 
BRANCH  27  28
HETATM   28  C   UNL     1      -1.756  10.571  25.482  0.00  0.00     0.139 C 
HETATM   29  O   UNL     1      -1.504   9.557  24.479  0.00  0.00    -0.384 OA
HETATM   30  C   UNL     1      -0.181   9.063  24.700  0.00  0.00     0.168 C 
HETATM   31  C   UNL     1       0.616  10.234  25.232  0.00  0.00     0.029 C 
HETATM   32  C   UNL     1      -0.423  11.313  25.517  0.00  0.00     0.035 C 
ENDBRANCH  27  28
ENDBRANCH  25  27
ENDBRANCH   6  23
BRANCH   4  33
HETATM   33  O   UNL     1      -5.493  13.549  21.791  0.00  0.00    -0.360 OA
HETATM   34  H   UNL     1      -5.598  12.800  21.178  0.00  0.00     0.217 HD
ENDBRANCH   4  33
TORSDOF 7
ENDMDL
MODEL 8
REMARK VINA RESULT:    -7.897      2.615      8.177
REMARK INTER + INTRA:         -12.595
REMARK INTER:                 -11.318
REMARK INTRA:                  -1.277
REMARK UNBOUND:                -1.928
REMARK  7 active torsions:
REMARK  status: ('A' for Active; 'I' for Inactive)
REMARK    1  A    between atoms: C_7  and  N_8 
REMARK    2  A    between atoms: C_14  and  C_15 
REMARK    3  A    between atoms: C_16  and  O_17 
REMARK    4  A    between atoms: C_19  and  O_20 
REMARK    5  A    between atoms: C_22  and  C_23 
REMARK       I    between atoms: C_23  and  N_25 
REMARK    6  A    between atoms: N_25  and  C_27 
REMARK    7  A    between atoms: C_27  and  C_28 
ROOT
HETATM    1  C   UNL     1      -1.901  13.427  25.596  0.00  0.00     0.046 C 
HETATM    2  C   UNL     1      -1.930  14.107  26.836  0.00  0.00     0.082 C 
HETATM    3  C   UNL     1      -0.948  15.023  27.199  0.00  0.00     0.075 C 
HETATM    4  C   UNL     1       0.070  15.338  26.309  0.00  0.00     0.084 C 
HETATM    5  C   UNL     1      -0.845  13.752  24.706  0.00  0.00     0.038 C 
HETATM    6  C   UNL     1       0.084  14.796  25.015  0.00  0.00     0.066 C 
ENDROOT
BRANCH   1   7
HETATM    7  C   UNL     1      -3.050  12.479  25.337  0.00  0.00     0.172 A 
HETATM    8  N   UNL     1      -3.669  12.163  24.152  0.00  0.00    -0.244 N 
HETATM    9  C   UNL     1      -4.687  11.274  24.488  0.00  0.00     0.349 A 
HETATM   10  O   UNL     1      -5.586  10.802  23.802  0.00  0.00    -0.245 OA
HETATM   11  N   UNL     1      -4.577  11.081  25.852  0.00  0.00    -0.226 N 
HETATM   12  H   UNL     1      -5.260  10.600  26.420  0.00  0.00     0.194 HD
HETATM   13  N   UNL     1      -3.581  11.842  26.362  0.00  0.00    -0.151 NA
BRANCH   8  14
HETATM   14  C   UNL     1      -3.622  12.707  22.855  0.00  0.00     0.051 A 
HETATM   15  C   UNL     1      -2.779  12.227  21.837  0.00  0.00    -0.035 A 
HETATM   16  C   UNL     1      -1.702  11.206  22.080  0.00  0.00     0.050 C 
HETATM   17  C   UNL     1      -2.794  12.876  20.590  0.00  0.00     0.009 A 
HETATM   18  C   UNL     1      -3.556  14.026  20.370  0.00  0.00     0.001 A 
HETATM   19  C   UNL     1      -4.319  14.548  21.408  0.00  0.00     0.002 A 
HETATM   20  C   UNL     1      -4.347  13.900  22.631  0.00  0.00     0.031 A 
ENDBRANCH   8  14
ENDBRANCH   1   7
BRANCH   2  21
HETATM   21  O   UNL     1      -2.916  13.964  27.781  0.00  0.00    -0.360 OA
HETATM   22  H   UNL     1      -3.752  14.331  27.417  0.00  0.00     0.217 HD
ENDBRANCH   2  21
BRANCH   6  23
HETATM   23  C   UNL     1       1.011  15.352  23.945  0.00  0.00     0.256 C 
HETATM   24  O   UNL     1       1.157  16.579  23.908  0.00  0.00    -0.267 OA
HETATM   25  N   UNL     1       1.730  14.479  23.071  0.00  0.00    -0.350 N 
HETATM   26  C   UNL     1       1.589  13.031  23.109  0.00  0.00     0.153 C 
BRANCH  25  27
HETATM   27  C   UNL     1       2.408  15.024  21.848  0.00  0.00     0.157 C 
BRANCH  27  28
HETATM   28  C   UNL     1       3.926  14.668  21.692  0.00  0.00     0.139 C 
HETATM   29  O   UNL     1       4.630  15.648  20.893  0.00  0.00    -0.384 OA
HETATM   30  C   UNL     1       6.028  15.418  21.077  0.00  0.00     0.168 C 
HETATM   31  C   UNL     1       6.183  14.913  22.495  0.00  0.00     0.029 C 
HETATM   32  C   UNL     1       4.758  14.652  22.971  0.00  0.00     0.035 C 
ENDBRANCH  27  28
ENDBRANCH  25  27
ENDBRANCH   6  23
BRANCH   4  33
HETATM   33  O   UNL     1       1.032  16.218  26.721  0.00  0.00    -0.360 OA
HETATM   34  H   UNL     1       1.824  15.723  26.994  0.00  0.00     0.217 HD
ENDBRANCH   4  33
TORSDOF 7
ENDMDL
MODEL 9
REMARK VINA RESULT:    -7.528      3.877      5.897
REMARK INTER + INTRA:         -12.096
REMARK INTER:                 -10.168
REMARK INTRA:                  -1.928
REMARK UNBOUND:                -1.928
REMARK  7 active torsions:
REMARK  status: ('A' for Active; 'I' for Inactive)
REMARK    1  A    between atoms: C_7  and  N_8 
REMARK    2  A    between atoms: C_14  and  C_15 
REMARK    3  A    between atoms: C_16  and  O_17 
REMARK    4  A    between atoms: C_19  and  O_20 
REMARK    5  A    between atoms: C_22  and  C_23 
REMARK       I    between atoms: C_23  and  N_25 
REMARK    6  A    between atoms: N_25  and  C_27 
REMARK    7  A    between atoms: C_27  and  C_28 
ROOT
HETATM    1  C   UNL     1      -2.795  12.098  24.029  0.00  0.00     0.046 C 
HETATM    2  C   UNL     1      -3.563  12.490  25.152  0.00  0.00     0.082 C 
HETATM    3  C   UNL     1      -3.381  11.918  26.406  0.00  0.00     0.075 C 
HETATM    4  C   UNL     1      -2.382  10.974  26.600  0.00  0.00     0.084 C 
HETATM    5  C   UNL     1      -1.788  11.121  24.245  0.00  0.00     0.038 C 
HETATM    6  C   UNL     1      -1.502  10.637  25.561  0.00  0.00     0.066 C 
ENDROOT
BRANCH   1   7
HETATM    7  C   UNL     1      -3.094  12.826  22.739  0.00  0.00     0.172 A 
HETATM    8  N   UNL     1      -2.243  13.512  21.907  0.00  0.00    -0.244 N 
HETATM    9  C   UNL     1      -3.045  14.020  20.888  0.00  0.00     0.349 A 
HETATM   10  O   UNL     1      -2.774  14.793  19.977  0.00  0.00    -0.245 OA
HETATM   11  N   UNL     1      -4.321  13.562  21.156  0.00  0.00    -0.226 N 
HETATM   12  H   UNL     1      -5.155  13.875  20.679  0.00  0.00     0.194 HD
HETATM   13  N   UNL     1      -4.339  12.847  22.306  0.00  0.00    -0.151 NA
BRANCH   8  14
HETATM   14  C   UNL     1      -0.910  13.948  22.025  0.00  0.00     0.051 A 
HETATM   15  C   UNL     1       0.187  13.266  21.469  0.00  0.00    -0.035 A 
HETATM   16  C   UNL     1       0.073  11.899  20.852  0.00  0.00     0.050 C 
HETATM   17  C   UNL     1       1.477  13.780  21.684  0.00  0.00     0.009 A 
HETATM   18  C   UNL     1       1.698  14.892  22.501  0.00  0.00     0.001 A 
HETATM   19  C   UNL     1       0.617  15.508  23.121  0.00  0.00     0.002 A 
HETATM   20  C   UNL     1      -0.665  15.040  22.889  0.00  0.00     0.031 A 
ENDBRANCH   8  14
ENDBRANCH   1   7
BRANCH   2  21
HETATM   21  O   UNL     1      -4.526  13.468  25.134  0.00  0.00    -0.360 OA
HETATM   22  H   UNL     1      -5.204  13.224  24.465  0.00  0.00     0.217 HD
ENDBRANCH   2  21
BRANCH   6  23
HETATM   23  C   UNL     1      -0.237   9.838  25.835  0.00  0.00     0.256 C 
HETATM   24  O   UNL     1      -0.369   8.762  26.430  0.00  0.00    -0.267 OA
HETATM   25  N   UNL     1       1.033  10.287  25.361  0.00  0.00    -0.350 N 
HETATM   26  C   UNL     1       1.210  11.540  24.641  0.00  0.00     0.153 C 
BRANCH  25  27
HETATM   27  C   UNL     1       2.297   9.661  25.873  0.00  0.00     0.157 C 
BRANCH  27  28
HETATM   28  C   UNL     1       2.767   8.365  25.128  0.00  0.00     0.139 C 
HETATM   29  O   UNL     1       2.557   7.177  25.929  0.00  0.00    -0.384 OA
HETATM   30  C   UNL     1       2.707   6.051  25.062  0.00  0.00     0.168 C 
HETATM   31  C   UNL     1       2.214   6.502  23.705  0.00  0.00     0.029 C 
HETATM   32  C   UNL     1       2.027   8.010  23.842  0.00  0.00     0.035 C 
ENDBRANCH  27  28
ENDBRANCH  25  27
ENDBRANCH   6  23
BRANCH   4  33
HETATM   33  O   UNL     1      -2.261  10.414  27.842  0.00  0.00    -0.360 OA
HETATM   34  H   UNL     1      -1.623   9.680  27.803  0.00  0.00     0.217 HD
ENDBRANCH   4  33
TORSDOF 7
ENDMDL
