REMARK  7 active torsions:
REMARK  status: ('A' for Active; 'I' for Inactive)
REMARK    1  A    between atoms: C_7  and  N_8 
REMARK    2  A    between atoms: C_14  and  C_15 
REMARK    3  A    between atoms: C_16  and  O_17 
REMARK    4  A    between atoms: C_19  and  O_20 
REMARK    5  A    between atoms: C_22  and  C_23 
REMARK       I    between atoms: C_23  and  N_25 
REMARK    6  A    between atoms: N_25  and  C_27 
REMARK    7  A    between atoms: C_27  and  C_28 
ROOT
HETATM    1  C   UNL     1       0.135  -1.266  -0.093  0.00  0.00     0.046 C 
HETATM    2  C   UNL     1      -1.094  -1.615  -0.702  0.00  0.00     0.082 C 
HETATM    3  C   UNL     1      -2.099  -0.680  -0.925  0.00  0.00     0.075 C 
HETATM    4  C   UNL     1      -1.890   0.654  -0.602  0.00  0.00     0.084 C 
HETATM    5  C   UNL     1       0.324   0.100   0.243  0.00  0.00     0.038 C 
HETATM    6  C   UNL     1      -0.647   1.088  -0.116  0.00  0.00     0.066 C 
ENDROOT
BRANCH   1   7
HETATM    7  C   UNL     1       1.136  -2.388   0.062  0.00  0.00     0.172 A 
HETATM    8  N   UNL     1       2.496  -2.324   0.242  0.00  0.00    -0.244 N 
HETATM    9  C   UNL     1       2.930  -3.647   0.283  0.00  0.00     0.349 A 
HETATM   10  O   UNL     1       4.065  -4.108   0.308  0.00  0.00    -0.245 OA
HETATM   11  N   UNL     1       1.788  -4.416   0.171  0.00  0.00    -0.226 N 
HETATM   12  H   UNL     1       1.782  -5.416   0.025  0.00  0.00     0.194 HD
HETATM   13  N   UNL     1       0.697  -3.630   0.016  0.00  0.00    -0.151 NA
BRANCH   8  14
HETATM   14  C   UNL     1       3.441  -1.285   0.151  0.00  0.00     0.051 A 
HETATM   15  C   UNL     1       3.486  -0.361  -0.908  0.00  0.00    -0.035 A 
HETATM   16  C   UNL     1       2.651  -0.500  -2.151  0.00  0.00     0.050 C 
HETATM   17  C   UNL     1       4.500   0.613  -0.908  0.00  0.00     0.009 A 
HETATM   18  C   UNL     1       5.503   0.628   0.065  0.00  0.00     0.001 A 
HETATM   19  C   UNL     1       5.504  -0.343   1.059  0.00  0.00     0.002 A 
HETATM   20  C   UNL     1       4.491  -1.286   1.098  0.00  0.00     0.031 A 
ENDBRANCH   8  14
ENDBRANCH   1   7
BRANCH   2  21
HETATM   21  O   UNL     1      -1.412  -2.873  -1.151  0.00  0.00    -0.360 OA
HETATM   22  H   UNL     1      -0.737  -3.503  -0.814  0.00  0.00     0.217 HD
ENDBRANCH   2  21
BRANCH   6  23
HETATM   23  C   UNL     1      -0.312   2.569  -0.039  0.00  0.00     0.256 C 
HETATM   24  O   UNL     1       0.205   2.976   1.008  0.00  0.00    -0.267 OA
HETATM   25  N   UNL     1      -0.526   3.430  -1.159  0.00  0.00    -0.350 N 
HETATM   26  C   UNL     1      -1.115   2.970  -2.408  0.00  0.00     0.153 C 
BRANCH  25  27
HETATM   27  C   UNL     1      -0.469   4.920  -0.990  0.00  0.00     0.157 C 
BRANCH  27  28
HETATM   28  C   UNL     1      -0.240   5.748  -2.300  0.00  0.00     0.139 C 
HETATM   29  O   UNL     1      -1.330   5.583  -3.239  0.00  0.00    -0.384 OA
HETATM   30  C   UNL     1      -1.191   6.602  -4.231  0.00  0.00     0.168 C 
HETATM   31  C   UNL     1      -0.590   7.795  -3.520  0.00  0.00     0.029 C 
HETATM   32  C   UNL     1      -0.186   7.265  -2.148  0.00  0.00     0.035 C 
ENDBRANCH  27  28
ENDBRANCH  25  27
ENDBRANCH   6  23
BRANCH   4  33
HETATM   33  O   UNL     1      -2.918   1.532  -0.808  0.00  0.00    -0.360 OA
HETATM   34  H   UNL     1      -3.571   1.127  -1.406  0.00  0.00     0.217 HD
ENDBRANCH   4  33
TORSDOF 7
