REMARK  3 active torsions:
REMARK  status: ('A' for Active; 'I' for Inactive)
REMARK    1  A    between atoms: C_9  and  C_11 
REMARK    2  A    between atoms: C_23  and  N_24 
REMARK       I    between atoms: N_24  and  C_25 
REMARK    3  A    between atoms: C_25  and  C_27 
ROOT
HETATM    1  C   UNL     1      -3.767   0.014   0.068  0.00  0.00     0.022 A 
HETATM    2  C   UNL     1      -4.512  -1.190   0.093  0.00  0.00     0.016 A 
HETATM    3  C   UNL     1      -5.914  -1.211   0.100  0.00  0.00     0.002 A 
HETATM    4  C   UNL     1      -6.626  -0.024   0.064  0.00  0.00     0.010 A 
HETATM    5  C   UNL     1      -4.486   1.221   0.109  0.00  0.00    -0.003 A 
HETATM    6  C   UNL     1      -5.911   1.164   0.056  0.00  0.00    -0.019 A 
HETATM    7  C   UNL     1      -4.114   2.645   0.153  0.00  0.00    -0.016 A 
HETATM    8  C   UNL     1      -5.279   3.430  -0.012  0.00  0.00    -0.020 A 
HETATM    9  C   UNL     1      -5.242   4.820  -0.090  0.00  0.00     0.010 A 
HETATM   10  C   UNL     1      -4.010   5.456   0.007  0.00  0.00     0.001 A 
HETATM   11  C   UNL     1      -2.856   4.707   0.256  0.00  0.00     0.001 A 
HETATM   12  C   UNL     1      -2.915   3.310   0.373  0.00  0.00     0.013 A 
HETATM   13  C   UNL     1      -6.519   2.555  -0.021  0.00  0.00     0.153 A 
ENDROOT
BRANCH  13  14
HETATM   14  N   UNL     1      -7.274   2.756  -1.228  0.00  0.00    -0.344 N 
HETATM   15  C   UNL     1      -8.639   2.610  -1.266  0.00  0.00     0.253 C 
HETATM   16  O   UNL     1      -9.311   2.221  -0.321  0.00  0.00    -0.268 OA
HETATM   17  H   UNL     1      -6.757   2.835  -2.092  0.00  0.00     0.163 HD
BRANCH  15  18
HETATM   18  C   UNL     1      -9.291   2.935  -2.553  0.00  0.00     0.047 A 
HETATM   19  C   UNL     1     -10.454   2.249  -2.922  0.00  0.00     0.037 A 
HETATM   20  C   UNL     1     -11.076   2.588  -4.113  0.00  0.00     0.120 A 
HETATM   21  N   UNL     1     -10.663   3.547  -4.972  0.00  0.00    -0.242 NA
HETATM   22  C   UNL     1      -9.558   4.191  -4.558  0.00  0.00     0.138 A 
HETATM   23  C   UNL     1      -8.825   3.963  -3.398  0.00  0.00     0.027 A 
HETATM   24  N   UNL     1      -8.973   5.224  -5.239  0.00  0.00    -0.350 N 
HETATM   25  C   UNL     1      -7.774   4.927  -3.396  0.00  0.00     0.033 A 
HETATM   26  C   UNL     1      -7.888   5.686  -4.542  0.00  0.00     0.090 A 
HETATM   27  H   UNL     1      -9.326   5.588  -6.111  0.00  0.00     0.166 HD
ENDBRANCH  15  18
ENDBRANCH  13  14
BRANCH   1  28
HETATM   28  C   UNL     1      -2.308  -0.121  -0.049  0.00  0.00     0.140 C 
HETATM   29  N   UNL     1      -1.496   0.810  -0.643  0.00  0.00    -0.337 N 
HETATM   30  C   UNL     1      -0.194   0.487  -0.381  0.00  0.00     0.080 A 
HETATM   31  H   UNL     1      -1.814   1.638  -1.122  0.00  0.00     0.167 HD
HETATM   32  C   UNL     1       0.997   1.171  -0.529  0.00  0.00     0.148 A 
HETATM   33  C   UNL     1      -0.263  -0.813   0.088  0.00  0.00     0.088 A 
HETATM   34  N   UNL     1       2.148   0.509  -0.276  0.00  0.00    -0.271 NA
HETATM   35  C   UNL     1       2.090  -0.794   0.096  0.00  0.00     0.118 A 
HETATM   36  C   UNL     1       0.922  -1.516   0.302  0.00  0.00     0.053 A 
HETATM   37  N   UNL     1      -1.578  -1.181   0.282  0.00  0.00    -0.228 NA
ENDBRANCH   1  28
TORSDOF 3
