MODEL 1
REMARK VINA RESULT:    -7.680      0.000      0.000
REMARK INTER + INTRA:         -12.449
REMARK INTER:                 -10.457
REMARK INTRA:                  -1.991
REMARK UNBOUND:                -2.075
REMARK  7 active torsions:
REMARK  status: ('A' for Active; 'I' for Inactive)
REMARK    1  A    between atoms: C_7  and  N_8 
REMARK    2  A    between atoms: C_14  and  C_15 
REMARK    3  A    between atoms: C_16  and  O_17 
REMARK    4  A    between atoms: C_19  and  O_20 
REMARK    5  A    between atoms: C_22  and  S_23 
REMARK    6  A    between atoms: S_23  and  N_26 
REMARK    7  A    between atoms: N_26  and  C_28 
ROOT
HETATM    1  C   UNL     1       8.147  12.736  22.445  0.00  0.00     0.047 A 
HETATM    2  C   UNL     1       8.890  13.024  21.285  0.00  0.00     0.082 A 
HETATM    3  C   UNL     1       8.552  12.476  20.049  0.00  0.00     0.075 A 
HETATM    4  C   UNL     1       7.450  11.632  19.941  0.00  0.00     0.091 A 
HETATM    5  C   UNL     1       7.024  11.901  22.322  0.00  0.00     0.046 A 
HETATM    6  C   UNL     1       6.679  11.341  21.072  0.00  0.00     0.108 A 
ENDROOT
BRANCH   1   7
HETATM    7  C   UNL     1       8.546  13.396  23.718  0.00  0.00     0.172 A 
HETATM    8  N   UNL     1       7.813  14.300  24.431  0.00  0.00    -0.243 N 
HETATM    9  C   UNL     1       8.601  14.645  25.518  0.00  0.00     0.349 A 
HETATM   10  O   UNL     1       8.331  15.328  26.492  0.00  0.00    -0.245 OA
HETATM   11  N   UNL     1       9.794  13.958  25.336  0.00  0.00    -0.226 N 
HETATM   12  H   UNL     1      10.575  13.968  25.979  0.00  0.00     0.194 HD
HETATM   13  N   UNL     1       9.733  13.168  24.231  0.00  0.00    -0.151 NA
BRANCH   8  14
HETATM   14  C   UNL     1       6.465  14.690  24.371  0.00  0.00     0.067 A 
HETATM   15  C   UNL     1       5.459  13.823  24.837  0.00  0.00     0.061 A 
HETATM   16 CL   UNL     1       5.835  12.420  25.783  0.00  0.00    -0.082 Cl
HETATM   17  C   UNL     1       4.113  14.123  24.633  0.00  0.00     0.026 A 
HETATM   18  C   UNL     1       3.757  15.294  23.966  0.00  0.00     0.002 A 
HETATM   19  C   UNL     1       4.747  16.179  23.532  0.00  0.00     0.002 A 
HETATM   20  C   UNL     1       6.099  15.886  23.739  0.00  0.00     0.032 A 
ENDBRANCH   8  14
ENDBRANCH   1   7
BRANCH   2  21
HETATM   21  O   UNL     1       9.984  13.854  21.264  0.00  0.00    -0.360 OA
HETATM   22  H   UNL     1       9.755  14.678  21.742  0.00  0.00     0.217 HD
ENDBRANCH   2  21
BRANCH   6  23
HETATM   23  S   UNL     1       5.364  10.128  21.031  0.00  0.00     0.246 S 
HETATM   24  O   UNL     1       5.104   9.621  22.361  0.00  0.00    -0.206 OA
HETATM   25  O   UNL     1       4.303  10.745  20.266  0.00  0.00    -0.206 OA
BRANCH  23  26
HETATM   26  N   UNL     1       5.954   8.768  20.100  0.00  0.00    -0.207 NA
HETATM   27  C   UNL     1       6.318   7.609  20.967  0.00  0.00     0.130 C 
BRANCH  26  28
HETATM   28  C   UNL     1       4.942   8.335  19.024  0.00  0.00     0.065 C 
HETATM   29  C   UNL     1       5.581   8.119  17.648  0.00  0.00     0.027 C 
HETATM   30  C   UNL     1       4.227   7.028  19.394  0.00  0.00     0.027 C 
ENDBRANCH  26  28
ENDBRANCH  23  26
ENDBRANCH   6  23
BRANCH   4  31
HETATM   31  O   UNL     1       7.145  11.134  18.713  0.00  0.00    -0.359 OA
HETATM   32  H   UNL     1       7.146  11.842  18.047  0.00  0.00     0.217 HD
ENDBRANCH   4  31
TORSDOF 7
ENDMDL
MODEL 2
REMARK VINA RESULT:    -7.566      1.613      2.031
REMARK INTER + INTRA:         -12.295
REMARK INTER:                 -10.150
REMARK INTRA:                  -2.145
REMARK UNBOUND:                -2.075
REMARK  7 active torsions:
REMARK  status: ('A' for Active; 'I' for Inactive)
REMARK    1  A    between atoms: C_7  and  N_8 
REMARK    2  A    between atoms: C_14  and  C_15 
REMARK    3  A    between atoms: C_16  and  O_17 
REMARK    4  A    between atoms: C_19  and  O_20 
REMARK    5  A    between atoms: C_22  and  S_23 
REMARK    6  A    between atoms: S_23  and  N_26 
REMARK    7  A    between atoms: N_26  and  C_28 
ROOT
HETATM    1  C   UNL     1       8.250  12.750  22.516  0.00  0.00     0.047 A 
HETATM    2  C   UNL     1       8.843  13.158  21.306  0.00  0.00     0.082 A 
HETATM    3  C   UNL     1       8.478  12.586  20.089  0.00  0.00     0.075 A 
HETATM    4  C   UNL     1       7.500  11.597  20.051  0.00  0.00     0.091 A 
HETATM    5  C   UNL     1       7.249  11.767  22.465  0.00  0.00     0.046 A 
HETATM    6  C   UNL     1       6.878  11.182  21.234  0.00  0.00     0.108 A 
ENDROOT
BRANCH   1   7
HETATM    7  C   UNL     1       8.663  13.441  23.769  0.00  0.00     0.172 A 
HETATM    8  N   UNL     1       7.929  14.348  24.478  0.00  0.00    -0.243 N 
HETATM    9  C   UNL     1       8.731  14.726  25.543  0.00  0.00     0.349 A 
HETATM   10  O   UNL     1       8.469  15.423  26.509  0.00  0.00    -0.245 OA
HETATM   11  N   UNL     1       9.931  14.054  25.352  0.00  0.00    -0.226 N 
HETATM   12  H   UNL     1      10.723  14.089  25.980  0.00  0.00     0.194 HD
HETATM   13  N   UNL     1       9.863  13.242  24.264  0.00  0.00    -0.151 NA
BRANCH   8  14
HETATM   14  C   UNL     1       6.574  14.715  24.436  0.00  0.00     0.067 A 
HETATM   15  C   UNL     1       5.589  13.834  24.919  0.00  0.00     0.061 A 
HETATM   16 CL   UNL     1       6.001  12.441  25.864  0.00  0.00    -0.082 Cl
HETATM   17  C   UNL     1       4.236  14.111  24.733  0.00  0.00     0.026 A 
HETATM   18  C   UNL     1       3.851  15.273  24.067  0.00  0.00     0.002 A 
HETATM   19  C   UNL     1       4.819  16.173  23.617  0.00  0.00     0.002 A 
HETATM   20  C   UNL     1       6.179  15.903  23.805  0.00  0.00     0.032 A 
ENDBRANCH   8  14
ENDBRANCH   1   7
BRANCH   2  21
HETATM   21  O   UNL     1       9.803  14.135  21.216  0.00  0.00    -0.360 OA
HETATM   22  H   UNL     1      10.103  14.358  22.121  0.00  0.00     0.217 HD
ENDBRANCH   2  21
BRANCH   6  23
HETATM   23  S   UNL     1       5.747   9.796  21.271  0.00  0.00     0.246 S 
HETATM   24  O   UNL     1       4.405  10.231  20.947  0.00  0.00    -0.206 OA
HETATM   25  O   UNL     1       6.387   8.763  20.487  0.00  0.00    -0.206 OA
BRANCH  23  26
HETATM   26  N   UNL     1       5.688   9.231  22.927  0.00  0.00    -0.207 NA
HETATM   27  C   UNL     1       4.296   8.924  23.366  0.00  0.00     0.130 C 
BRANCH  26  28
HETATM   28  C   UNL     1       6.600   8.010  23.143  0.00  0.00     0.065 C 
HETATM   29  C   UNL     1       7.961   8.374  23.744  0.00  0.00     0.027 C 
HETATM   30  C   UNL     1       5.963   6.970  24.076  0.00  0.00     0.027 C 
ENDBRANCH  26  28
ENDBRANCH  23  26
ENDBRANCH   6  23
BRANCH   4  31
HETATM   31  O   UNL     1       7.162  11.078  18.840  0.00  0.00    -0.359 OA
HETATM   32  H   UNL     1       7.162  10.106  18.872  0.00  0.00     0.217 HD
ENDBRANCH   4  31
TORSDOF 7
ENDMDL
MODEL 3
REMARK VINA RESULT:    -7.472      1.963      2.579
REMARK INTER + INTRA:         -12.168
REMARK INTER:                 -10.103
REMARK INTRA:                  -2.065
REMARK UNBOUND:                -2.075
REMARK  7 active torsions:
REMARK  status: ('A' for Active; 'I' for Inactive)
REMARK    1  A    between atoms: C_7  and  N_8 
REMARK    2  A    between atoms: C_14  and  C_15 
REMARK    3  A    between atoms: C_16  and  O_17 
REMARK    4  A    between atoms: C_19  and  O_20 
REMARK    5  A    between atoms: C_22  and  S_23 
REMARK    6  A    between atoms: S_23  and  N_26 
REMARK    7  A    between atoms: N_26  and  C_28 
ROOT
HETATM    1  C   UNL     1       8.353  12.853  22.201  0.00  0.00     0.047 A 
HETATM    2  C   UNL     1       9.191  12.712  21.079  0.00  0.00     0.082 A 
HETATM    3  C   UNL     1       8.736  12.120  19.902  0.00  0.00     0.075 A 
HETATM    4  C   UNL     1       7.424  11.664  19.815  0.00  0.00     0.091 A 
HETATM    5  C   UNL     1       7.025  12.410  22.096  0.00  0.00     0.046 A 
HETATM    6  C   UNL     1       6.560  11.806  20.906  0.00  0.00     0.108 A 
ENDROOT
BRANCH   1   7
HETATM    7  C   UNL     1       8.900  13.535  23.406  0.00  0.00     0.172 A 
HETATM    8  N   UNL     1       8.249  14.438  24.197  0.00  0.00    -0.243 N 
HETATM    9  C   UNL     1       9.163  14.808  25.170  0.00  0.00     0.349 A 
HETATM   10  O   UNL     1       9.008  15.499  26.164  0.00  0.00    -0.245 OA
HETATM   11  N   UNL     1      10.334  14.136  24.846  0.00  0.00    -0.226 N 
HETATM   12  H   UNL     1      11.190  14.166  25.384  0.00  0.00     0.194 HD
HETATM   13  N   UNL     1      10.147  13.331  23.767  0.00  0.00    -0.151 NA
BRANCH   8  14
HETATM   14  C   UNL     1       6.899  14.807  24.304  0.00  0.00     0.067 A 
HETATM   15  C   UNL     1       5.994  13.979  24.995  0.00  0.00     0.061 A 
HETATM   16 CL   UNL     1       6.541  12.676  26.000  0.00  0.00    -0.082 Cl
HETATM   17  C   UNL     1       4.626  14.245  24.969  0.00  0.00     0.026 A 
HETATM   18  C   UNL     1       4.146  15.342  24.257  0.00  0.00     0.002 A 
HETATM   19  C   UNL     1       5.039  16.192  23.599  0.00  0.00     0.002 A 
HETATM   20  C   UNL     1       6.413  15.933  23.626  0.00  0.00     0.032 A 
ENDBRANCH   8  14
ENDBRANCH   1   7
BRANCH   2  21
HETATM   21  O   UNL     1      10.495  13.138  21.040  0.00  0.00    -0.360 OA
HETATM   22  H   UNL     1      10.833  13.187  21.958  0.00  0.00     0.217 HD
ENDBRANCH   2  21
BRANCH   6  23
HETATM   23  S   UNL     1       4.924  11.082  20.916  0.00  0.00     0.246 S 
HETATM   24  O   UNL     1       4.184  11.492  19.741  0.00  0.00    -0.206 OA
HETATM   25  O   UNL     1       5.132   9.679  21.192  0.00  0.00    -0.206 OA
BRANCH  23  26
HETATM   26  N   UNL     1       4.074  11.763  22.286  0.00  0.00    -0.207 NA
HETATM   27  C   UNL     1       2.966  12.669  21.867  0.00  0.00     0.130 C 
BRANCH  26  28
HETATM   28  C   UNL     1       3.543  10.666  23.227  0.00  0.00     0.065 C 
HETATM   29  C   UNL     1       4.519  10.315  24.355  0.00  0.00     0.027 C 
HETATM   30  C   UNL     1       2.218  11.064  23.891  0.00  0.00     0.027 C 
ENDBRANCH  26  28
ENDBRANCH  23  26
ENDBRANCH   6  23
BRANCH   4  31
HETATM   31  O   UNL     1       7.018  11.110  18.641  0.00  0.00    -0.359 OA
HETATM   32  H   UNL     1       7.103  10.141  18.673  0.00  0.00     0.217 HD
ENDBRANCH   4  31
TORSDOF 7
ENDMDL
MODEL 4
REMARK VINA RESULT:    -7.312      2.560      3.607
REMARK INTER + INTRA:         -11.951
REMARK INTER:                  -9.570
REMARK INTRA:                  -2.381
REMARK UNBOUND:                -2.075
REMARK  7 active torsions:
REMARK  status: ('A' for Active; 'I' for Inactive)
REMARK    1  A    between atoms: C_7  and  N_8 
REMARK    2  A    between atoms: C_14  and  C_15 
REMARK    3  A    between atoms: C_16  and  O_17 
REMARK    4  A    between atoms: C_19  and  O_20 
REMARK    5  A    between atoms: C_22  and  S_23 
REMARK    6  A    between atoms: S_23  and  N_26 
REMARK    7  A    between atoms: N_26  and  C_28 
ROOT
HETATM    1  C   UNL     1       8.441  12.015  22.354  0.00  0.00     0.047 A 
HETATM    2  C   UNL     1       8.962  10.967  23.135  0.00  0.00     0.082 A 
HETATM    3  C   UNL     1       8.278   9.762  23.285  0.00  0.00     0.075 A 
HETATM    4  C   UNL     1       7.056   9.572  22.646  0.00  0.00     0.091 A 
HETATM    5  C   UNL     1       7.218  11.806  21.695  0.00  0.00     0.046 A 
HETATM    6  C   UNL     1       6.519  10.587  21.847  0.00  0.00     0.108 A 
ENDROOT
BRANCH   1   7
HETATM    7  C   UNL     1       9.253  13.254  22.208  0.00  0.00     0.172 A 
HETATM    8  N   UNL     1       8.884  14.517  22.572  0.00  0.00    -0.243 N 
HETATM    9  C   UNL     1       9.950  15.332  22.223  0.00  0.00     0.349 A 
HETATM   10  O   UNL     1      10.136  16.515  22.455  0.00  0.00    -0.245 OA
HETATM   11  N   UNL     1      10.865  14.490  21.606  0.00  0.00    -0.226 N 
HETATM   12  H   UNL     1      11.774  14.772  21.262  0.00  0.00     0.194 HD
HETATM   13  N   UNL     1      10.431  13.202  21.629  0.00  0.00    -0.151 NA
BRANCH   8  14
HETATM   14  C   UNL     1       7.836  15.009  23.367  0.00  0.00     0.067 A 
HETATM   15  C   UNL     1       7.863  14.826  24.762  0.00  0.00     0.061 A 
HETATM   16 CL   UNL     1       9.297  14.299  25.582  0.00  0.00    -0.082 Cl
HETATM   17  C   UNL     1       6.757  15.159  25.543  0.00  0.00     0.026 A 
HETATM   18  C   UNL     1       5.615  15.682  24.940  0.00  0.00     0.002 A 
HETATM   19  C   UNL     1       5.592  15.903  23.562  0.00  0.00     0.002 A 
HETATM   20  C   UNL     1       6.700  15.576  22.773  0.00  0.00     0.032 A 
ENDBRANCH   8  14
ENDBRANCH   1   7
BRANCH   2  21
HETATM   21  O   UNL     1      10.163  11.030  23.797  0.00  0.00    -0.360 OA
HETATM   22  H   UNL     1      10.582  11.892  23.595  0.00  0.00     0.217 HD
ENDBRANCH   2  21
BRANCH   6  23
HETATM   23  S   UNL     1       4.877  10.470  21.148  0.00  0.00     0.246 S 
HETATM   24  O   UNL     1       4.725  11.410  20.057  0.00  0.00    -0.206 OA
HETATM   25  O   UNL     1       4.658   9.058  20.928  0.00  0.00    -0.206 OA
BRANCH  23  26
HETATM   26  N   UNL     1       3.756  10.984  22.390  0.00  0.00    -0.207 NA
HETATM   27  C   UNL     1       3.637   9.982  23.489  0.00  0.00     0.130 C 
BRANCH  26  28
HETATM   28  C   UNL     1       4.134  12.363  22.960  0.00  0.00     0.065 C 
HETATM   29  C   UNL     1       3.033  13.412  22.780  0.00  0.00     0.027 C 
HETATM   30  C   UNL     1       4.451  12.301  24.461  0.00  0.00     0.027 C 
ENDBRANCH  26  28
ENDBRANCH  23  26
ENDBRANCH   6  23
BRANCH   4  31
HETATM   31  O   UNL     1       6.431   8.375  22.806  0.00  0.00    -0.359 OA
HETATM   32  H   UNL     1       6.296   7.942  21.945  0.00  0.00     0.217 HD
ENDBRANCH   4  31
TORSDOF 7
ENDMDL
MODEL 5
REMARK VINA RESULT:    -7.263      2.244      2.836
REMARK INTER + INTRA:         -11.885
REMARK INTER:                 -10.052
REMARK INTRA:                  -1.833
REMARK UNBOUND:                -2.075
REMARK  7 active torsions:
REMARK  status: ('A' for Active; 'I' for Inactive)
REMARK    1  A    between atoms: C_7  and  N_8 
REMARK    2  A    between atoms: C_14  and  C_15 
REMARK    3  A    between atoms: C_16  and  O_17 
REMARK    4  A    between atoms: C_19  and  O_20 
REMARK    5  A    between atoms: C_22  and  S_23 
REMARK    6  A    between atoms: S_23  and  N_26 
REMARK    7  A    between atoms: N_26  and  C_28 
ROOT
HETATM    1  C   UNL     1       8.409  12.206  22.075  0.00  0.00     0.047 A 
HETATM    2  C   UNL     1       8.867  11.106  22.824  0.00  0.00     0.082 A 
HETATM    3  C   UNL     1       8.171   9.899  22.844  0.00  0.00     0.075 A 
HETATM    4  C   UNL     1       7.001   9.759  22.104  0.00  0.00     0.091 A 
HETATM    5  C   UNL     1       7.239  12.048  21.314  0.00  0.00     0.046 A 
HETATM    6  C   UNL     1       6.528  10.827  21.334  0.00  0.00     0.108 A 
ENDROOT
BRANCH   1   7
HETATM    7  C   UNL     1       9.233  13.446  22.070  0.00  0.00     0.172 A 
HETATM    8  N   UNL     1       8.860  14.673  22.540  0.00  0.00    -0.243 N 
HETATM    9  C   UNL     1       9.940  15.507  22.301  0.00  0.00     0.349 A 
HETATM   10  O   UNL     1      10.126  16.662  22.648  0.00  0.00    -0.245 OA
HETATM   11  N   UNL     1      10.870  14.719  21.636  0.00  0.00    -0.226 N 
HETATM   12  H   UNL     1      11.791  15.024  21.348  0.00  0.00     0.194 HD
HETATM   13  N   UNL     1      10.428  13.438  21.526  0.00  0.00    -0.151 NA
BRANCH   8  14
HETATM   14  C   UNL     1       7.790  15.098  23.344  0.00  0.00     0.067 A 
HETATM   15  C   UNL     1       7.827  14.887  24.735  0.00  0.00     0.061 A 
HETATM   16 CL   UNL     1       9.284  14.412  25.544  0.00  0.00    -0.082 Cl
HETATM   17  C   UNL     1       6.707  15.151  25.522  0.00  0.00     0.026 A 
HETATM   18  C   UNL     1       5.541  15.632  24.930  0.00  0.00     0.002 A 
HETATM   19  C   UNL     1       5.506  15.880  23.556  0.00  0.00     0.002 A 
HETATM   20  C   UNL     1       6.628  15.623  22.761  0.00  0.00     0.032 A 
ENDBRANCH   8  14
ENDBRANCH   1   7
BRANCH   2  21
HETATM   21  O   UNL     1      10.015  11.119  23.577  0.00  0.00    -0.360 OA
HETATM   22  H   UNL     1       9.876  11.714  24.343  0.00  0.00     0.217 HD
ENDBRANCH   2  21
BRANCH   6  23
HETATM   23  S   UNL     1       4.943  10.766  20.507  0.00  0.00     0.246 S 
HETATM   24  O   UNL     1       4.302   9.489  20.737  0.00  0.00    -0.206 OA
HETATM   25  O   UNL     1       4.275  11.994  20.878  0.00  0.00    -0.206 OA
BRANCH  23  26
HETATM   26  N   UNL     1       5.262  10.846  18.788  0.00  0.00    -0.207 NA
HETATM   27  C   UNL     1       6.288   9.852  18.360  0.00  0.00     0.130 C 
BRANCH  26  28
HETATM   28  C   UNL     1       3.973  10.675  17.963  0.00  0.00     0.065 C 
HETATM   29  C   UNL     1       3.427  11.998  17.417  0.00  0.00     0.027 C 
HETATM   30  C   UNL     1       4.176   9.745  16.758  0.00  0.00     0.027 C 
ENDBRANCH  26  28
ENDBRANCH  23  26
ENDBRANCH   6  23
BRANCH   4  31
HETATM   31  O   UNL     1       6.363   8.559  22.139  0.00  0.00    -0.359 OA
HETATM   32  H   UNL     1       6.547   8.050  21.330  0.00  0.00     0.217 HD
ENDBRANCH   4  31
TORSDOF 7
ENDMDL
MODEL 6
REMARK VINA RESULT:    -7.236      2.778      3.488
REMARK INTER + INTRA:         -11.849
REMARK INTER:                  -9.861
REMARK INTRA:                  -1.988
REMARK UNBOUND:                -2.075
REMARK  7 active torsions:
REMARK  status: ('A' for Active; 'I' for Inactive)
REMARK    1  A    between atoms: C_7  and  N_8 
REMARK    2  A    between atoms: C_14  and  C_15 
REMARK    3  A    between atoms: C_16  and  O_17 
REMARK    4  A    between atoms: C_19  and  O_20 
REMARK    5  A    between atoms: C_22  and  S_23 
REMARK    6  A    between atoms: S_23  and  N_26 
REMARK    7  A    between atoms: N_26  and  C_28 
ROOT
HETATM    1  C   UNL     1       8.696  11.284  24.579  0.00  0.00     0.047 A 
HETATM    2  C   UNL     1       9.498  10.299  23.973  0.00  0.00     0.082 A 
HETATM    3  C   UNL     1       8.937   9.237  23.267  0.00  0.00     0.075 A 
HETATM    4  C   UNL     1       7.554   9.141  23.139  0.00  0.00     0.091 A 
HETATM    5  C   UNL     1       7.303  11.191  24.426  0.00  0.00     0.046 A 
HETATM    6  C   UNL     1       6.729  10.114  23.713  0.00  0.00     0.108 A 
ENDROOT
BRANCH   1   7
HETATM    7  C   UNL     1       9.374  12.410  25.278  0.00  0.00     0.172 A 
HETATM    8  N   UNL     1       9.097  13.740  25.138  0.00  0.00    -0.243 N 
HETATM    9  C   UNL     1       9.994  14.397  25.965  0.00  0.00     0.349 A 
HETATM   10  O   UNL     1      10.060  15.578  26.264  0.00  0.00    -0.245 OA
HETATM   11  N   UNL     1      10.797  13.397  26.499  0.00  0.00    -0.226 N 
HETATM   12  H   UNL     1      11.536  13.543  27.173  0.00  0.00     0.194 HD
HETATM   13  N   UNL     1      10.382  12.171  26.085  0.00  0.00    -0.151 NA
BRANCH   8  14
HETATM   14  C   UNL     1       8.024  14.431  24.554  0.00  0.00     0.067 A 
HETATM   15  C   UNL     1       8.164  15.000  23.274  0.00  0.00     0.061 A 
HETATM   16 CL   UNL     1       9.504  14.608  22.247  0.00  0.00    -0.082 Cl
HETATM   17  C   UNL     1       7.171  15.827  22.752  0.00  0.00     0.026 A 
HETATM   18  C   UNL     1       6.025  16.092  23.499  0.00  0.00     0.002 A 
HETATM   19  C   UNL     1       5.859  15.502  24.755  0.00  0.00     0.002 A 
HETATM   20  C   UNL     1       6.849  14.667  25.282  0.00  0.00     0.032 A 
ENDBRANCH   8  14
ENDBRANCH   1   7
BRANCH   2  21
HETATM   21  O   UNL     1      10.870  10.298  24.015  0.00  0.00    -0.360 OA
HETATM   22  H   UNL     1      11.177   9.369  24.082  0.00  0.00     0.217 HD
ENDBRANCH   2  21
BRANCH   6  23
HETATM   23  S   UNL     1       4.948   9.949  23.735  0.00  0.00     0.246 S 
HETATM   24  O   UNL     1       4.569   8.557  23.612  0.00  0.00    -0.206 OA
HETATM   25  O   UNL     1       4.509  10.725  24.873  0.00  0.00    -0.206 OA
BRANCH  23  26
HETATM   26  N   UNL     1       4.345  10.745  22.298  0.00  0.00    -0.207 NA
HETATM   27  C   UNL     1       3.325  11.786  22.617  0.00  0.00     0.130 C 
BRANCH  26  28
HETATM   28  C   UNL     1       5.487  11.352  21.464  0.00  0.00     0.065 C 
HETATM   29  C   UNL     1       5.355  11.069  19.964  0.00  0.00     0.027 C 
HETATM   30  C   UNL     1       5.573  12.877  21.624  0.00  0.00     0.027 C 
ENDBRANCH  26  28
ENDBRANCH  23  26
ENDBRANCH   6  23
BRANCH   4  31
HETATM   31  O   UNL     1       7.050   8.098  22.426  0.00  0.00    -0.359 OA
HETATM   32  H   UNL     1       7.638   7.327  22.487  0.00  0.00     0.217 HD
ENDBRANCH   4  31
TORSDOF 7
ENDMDL
MODEL 7
REMARK VINA RESULT:    -7.119      2.277      3.613
REMARK INTER + INTRA:         -11.691
REMARK INTER:                  -9.471
REMARK INTRA:                  -2.220
REMARK UNBOUND:                -2.075
REMARK  7 active torsions:
REMARK  status: ('A' for Active; 'I' for Inactive)
REMARK    1  A    between atoms: C_7  and  N_8 
REMARK    2  A    between atoms: C_14  and  C_15 
REMARK    3  A    between atoms: C_16  and  O_17 
REMARK    4  A    between atoms: C_19  and  O_20 
REMARK    5  A    between atoms: C_22  and  S_23 
REMARK    6  A    between atoms: S_23  and  N_26 
REMARK    7  A    between atoms: N_26  and  C_28 
ROOT
HETATM    1  C   UNL     1       7.694  11.917  21.374  0.00  0.00     0.047 A 
HETATM    2  C   UNL     1       7.449  11.576  20.030  0.00  0.00     0.082 A 
HETATM    3  C   UNL     1       6.346  10.807  19.664  0.00  0.00     0.075 A 
HETATM    4  C   UNL     1       5.451  10.369  20.636  0.00  0.00     0.091 A 
HETATM    5  C   UNL     1       6.774  11.488  22.344  0.00  0.00     0.046 A 
HETATM    6  C   UNL     1       5.656  10.705  21.979  0.00  0.00     0.108 A 
ENDROOT
BRANCH   1   7
HETATM    7  C   UNL     1       8.870  12.778  21.677  0.00  0.00     0.172 A 
HETATM    8  N   UNL     1       8.862  13.948  22.381  0.00  0.00    -0.243 N 
HETATM    9  C   UNL     1      10.174  14.392  22.382  0.00  0.00     0.349 A 
HETATM   10  O   UNL     1      10.682  15.327  22.978  0.00  0.00    -0.245 OA
HETATM   11  N   UNL     1      10.871  13.471  21.610  0.00  0.00    -0.226 N 
HETATM   12  H   UNL     1      11.868  13.490  21.441  0.00  0.00     0.194 HD
HETATM   13  N   UNL     1      10.054  12.463  21.204  0.00  0.00    -0.151 NA
BRANCH   8  14
HETATM   14  C   UNL     1       7.900  14.556  23.204  0.00  0.00     0.067 A 
HETATM   15  C   UNL     1       7.736  14.125  24.534  0.00  0.00     0.061 A 
HETATM   16 CL   UNL     1       8.894  13.091  25.303  0.00  0.00    -0.082 Cl
HETATM   17  C   UNL     1       6.679  14.600  25.308  0.00  0.00     0.026 A 
HETATM   18  C   UNL     1       5.777  15.514  24.766  0.00  0.00     0.002 A 
HETATM   19  C   UNL     1       5.952  15.976  23.460  0.00  0.00     0.002 A 
HETATM   20  C   UNL     1       7.014  15.507  22.679  0.00  0.00     0.032 A 
ENDBRANCH   8  14
ENDBRANCH   1   7
BRANCH   2  21
HETATM   21  O   UNL     1       8.249  11.965  18.984  0.00  0.00    -0.360 OA
HETATM   22  H   UNL     1       8.304  12.943  18.984  0.00  0.00     0.217 HD
ENDBRANCH   2  21
BRANCH   6  23
HETATM   23  S   UNL     1       4.644  10.025  23.288  0.00  0.00     0.246 S 
HETATM   24  O   UNL     1       4.414   8.613  23.065  0.00  0.00    -0.206 OA
HETATM   25  O   UNL     1       5.258  10.478  24.516  0.00  0.00    -0.206 OA
BRANCH  23  26
HETATM   26  N   UNL     1       3.077  10.796  23.174  0.00  0.00    -0.207 NA
HETATM   27  C   UNL     1       2.176  10.409  24.298  0.00  0.00     0.130 C 
BRANCH  26  28
HETATM   28  C   UNL     1       3.202  12.327  23.090  0.00  0.00     0.065 C 
HETATM   29  C   UNL     1       2.709  12.901  21.758  0.00  0.00     0.027 C 
HETATM   30  C   UNL     1       2.412  13.034  24.201  0.00  0.00     0.027 C 
ENDBRANCH  26  28
ENDBRANCH  23  26
ENDBRANCH   6  23
BRANCH   4  31
HETATM   31  O   UNL     1       4.379   9.636  20.233  0.00  0.00    -0.359 OA
HETATM   32  H   UNL     1       3.572  10.179  20.237  0.00  0.00     0.217 HD
ENDBRANCH   4  31
TORSDOF 7
ENDMDL
MODEL 8
REMARK VINA RESULT:    -7.082      2.725      5.272
REMARK INTER + INTRA:         -11.641
REMARK INTER:                  -9.566
REMARK INTRA:                  -2.075
REMARK UNBOUND:                -2.075
REMARK  7 active torsions:
REMARK  status: ('A' for Active; 'I' for Inactive)
REMARK    1  A    between atoms: C_7  and  N_8 
REMARK    2  A    between atoms: C_14  and  C_15 
REMARK    3  A    between atoms: C_16  and  O_17 
REMARK    4  A    between atoms: C_19  and  O_20 
REMARK    5  A    between atoms: C_22  and  S_23 
REMARK    6  A    between atoms: S_23  and  N_26 
REMARK    7  A    between atoms: N_26  and  C_28 
ROOT
HETATM    1  C   UNL     1       6.332  11.266  21.421  0.00  0.00     0.047 A 
HETATM    2  C   UNL     1       6.136  11.145  20.033  0.00  0.00     0.082 A 
HETATM    3  C   UNL     1       4.937  11.525  19.432  0.00  0.00     0.075 A 
HETATM    4  C   UNL     1       3.906  12.047  20.207  0.00  0.00     0.091 A 
HETATM    5  C   UNL     1       5.294  11.814  22.192  0.00  0.00     0.046 A 
HETATM    6  C   UNL     1       4.075  12.197  21.588  0.00  0.00     0.108 A 
ENDROOT
BRANCH   1   7
HETATM    7  C   UNL     1       7.657  10.880  21.980  0.00  0.00     0.172 A 
HETATM    8  N   UNL     1       8.705  11.715  22.241  0.00  0.00    -0.243 N 
HETATM    9  C   UNL     1       9.717  10.902  22.726  0.00  0.00     0.349 A 
HETATM   10  O   UNL     1      10.800  11.203  23.201  0.00  0.00    -0.245 OA
HETATM   11  N   UNL     1       9.213   9.611  22.657  0.00  0.00    -0.226 N 
HETATM   12  H   UNL     1       9.697   8.780  22.970  0.00  0.00     0.194 HD
HETATM   13  N   UNL     1       7.926   9.617  22.219  0.00  0.00    -0.151 NA
BRANCH   8  14
HETATM   14  C   UNL     1       8.810  13.113  22.318  0.00  0.00     0.067 A 
HETATM   15  C   UNL     1       8.415  13.787  23.489  0.00  0.00     0.061 A 
HETATM   16 CL   UNL     1       8.106  12.935  24.966  0.00  0.00    -0.082 Cl
HETATM   17  C   UNL     1       8.357  15.179  23.521  0.00  0.00     0.026 A 
HETATM   18  C   UNL     1       8.695  15.914  22.387  0.00  0.00     0.002 A 
HETATM   19  C   UNL     1       9.124  15.257  21.231  0.00  0.00     0.002 A 
HETATM   20  C   UNL     1       9.190  13.860  21.194  0.00  0.00     0.032 A 
ENDBRANCH   8  14
ENDBRANCH   1   7
BRANCH   2  21
HETATM   21  O   UNL     1       7.084  10.663  19.165  0.00  0.00    -0.360 OA
HETATM   22  H   UNL     1       6.820   9.761  18.888  0.00  0.00     0.217 HD
ENDBRANCH   2  21
BRANCH   6  23
HETATM   23  S   UNL     1       2.729  12.692  22.656  0.00  0.00     0.246 S 
HETATM   24  O   UNL     1       1.459  12.507  21.986  0.00  0.00    -0.206 OA
HETATM   25  O   UNL     1       2.987  12.040  23.920  0.00  0.00    -0.206 OA
BRANCH  23  26
HETATM   26  N   UNL     1       2.892  14.416  22.916  0.00  0.00    -0.207 NA
HETATM   27  C   UNL     1       1.571  15.088  23.078  0.00  0.00     0.130 C 
BRANCH  26  28
HETATM   28  C   UNL     1       3.801  14.724  24.120  0.00  0.00     0.065 C 
HETATM   29  C   UNL     1       4.794  15.859  23.850  0.00  0.00     0.027 C 
HETATM   30  C   UNL     1       2.997  15.121  25.366  0.00  0.00     0.027 C 
ENDBRANCH  26  28
ENDBRANCH  23  26
ENDBRANCH   6  23
BRANCH   4  31
HETATM   31  O   UNL     1       2.760  12.420  19.577  0.00  0.00    -0.359 OA
HETATM   32  H   UNL     1       2.316  13.132  20.069  0.00  0.00     0.217 HD
ENDBRANCH   4  31
TORSDOF 7
ENDMDL
MODEL 9
REMARK VINA RESULT:    -7.011      2.372      5.610
REMARK INTER + INTRA:         -11.545
REMARK INTER:                  -9.274
REMARK INTRA:                  -2.270
REMARK UNBOUND:                -2.075
REMARK  7 active torsions:
REMARK  status: ('A' for Active; 'I' for Inactive)
REMARK    1  A    between atoms: C_7  and  N_8 
REMARK    2  A    between atoms: C_14  and  C_15 
REMARK    3  A    between atoms: C_16  and  O_17 
REMARK    4  A    between atoms: C_19  and  O_20 
REMARK    5  A    between atoms: C_22  and  S_23 
REMARK    6  A    between atoms: S_23  and  N_26 
REMARK    7  A    between atoms: N_26  and  C_28 
ROOT
HETATM    1  C   UNL     1       6.390  11.169  21.849  0.00  0.00     0.047 A 
HETATM    2  C   UNL     1       6.484  11.148  20.445  0.00  0.00     0.082 A 
HETATM    3  C   UNL     1       7.535  11.772  19.777  0.00  0.00     0.075 A 
HETATM    4  C   UNL     1       8.528  12.425  20.501  0.00  0.00     0.091 A 
HETATM    5  C   UNL     1       7.408  11.811  22.572  0.00  0.00     0.046 A 
HETATM    6  C   UNL     1       8.475  12.449  21.899  0.00  0.00     0.108 A 
ENDROOT
BRANCH   1   7
HETATM    7  C   UNL     1       5.260  10.441  22.489  0.00  0.00     0.172 A 
HETATM    8  N   UNL     1       4.263  10.988  23.245  0.00  0.00    -0.243 N 
HETATM    9  C   UNL     1       3.465   9.925  23.636  0.00  0.00     0.349 A 
HETATM   10  O   UNL     1       2.395   9.926  24.223  0.00  0.00    -0.245 OA
HETATM   11  N   UNL     1       4.091   8.794  23.130  0.00  0.00    -0.226 N 
HETATM   12  H   UNL     1       3.740   7.849  23.213  0.00  0.00     0.194 HD
HETATM   13  N   UNL     1       5.186   9.133  22.399  0.00  0.00    -0.151 NA
BRANCH   8  14
HETATM   14  C   UNL     1       3.842  12.312  23.449  0.00  0.00     0.067 A 
HETATM   15  C   UNL     1       4.116  12.959  24.669  0.00  0.00     0.061 A 
HETATM   16 CL   UNL     1       5.236  12.300  25.815  0.00  0.00    -0.082 Cl
HETATM   17  C   UNL     1       3.564  14.208  24.949  0.00  0.00     0.026 A 
HETATM   18  C   UNL     1       2.737  14.827  24.013  0.00  0.00     0.002 A 
HETATM   19  C   UNL     1       2.489  14.210  22.785  0.00  0.00     0.002 A 
HETATM   20  C   UNL     1       3.044  12.959  22.495  0.00  0.00     0.032 A 
ENDBRANCH   8  14
ENDBRANCH   1   7
BRANCH   2  21
HETATM   21  O   UNL     1       5.576  10.521  19.627  0.00  0.00    -0.360 OA
HETATM   22  H   UNL     1       5.697   9.553  19.715  0.00  0.00     0.217 HD
ENDBRANCH   2  21
BRANCH   6  23
HETATM   23  S   UNL     1       9.620  13.419  22.872  0.00  0.00     0.246 S 
HETATM   24  O   UNL     1       9.834  12.801  24.163  0.00  0.00    -0.206 OA
HETATM   25  O   UNL     1      10.739  13.678  21.994  0.00  0.00    -0.206 OA
BRANCH  23  26
HETATM   26  N   UNL     1       8.842  14.954  23.192  0.00  0.00    -0.207 NA
HETATM   27  C   UNL     1       8.764  15.810  21.973  0.00  0.00     0.130 C 
BRANCH  26  28
HETATM   28  C   UNL     1       7.443  14.765  23.804  0.00  0.00     0.065 C 
HETATM   29  C   UNL     1       7.380  15.130  25.291  0.00  0.00     0.027 C 
HETATM   30  C   UNL     1       6.379  15.613  23.091  0.00  0.00     0.027 C 
ENDBRANCH  26  28
ENDBRANCH  23  26
ENDBRANCH   6  23
BRANCH   4  31
HETATM   31  O   UNL     1       9.546  13.005  19.809  0.00  0.00    -0.359 OA
HETATM   32  H   UNL     1       9.308  13.912  19.549  0.00  0.00     0.217 HD
ENDBRANCH   4  31
TORSDOF 7
ENDMDL
