MODEL 1
REMARK VINA RESULT:   -10.402      0.000      0.000
REMARK INTER + INTRA:         -14.974
REMARK INTER:                 -12.844
REMARK INTRA:                  -2.130
REMARK UNBOUND:                -0.923
REMARK  7 active torsions:
REMARK  status: ('A' for Active; 'I' for Inactive)
REMARK    1  A    between atoms: C_7  and  N_8 
REMARK    2  A    between atoms: C_14  and  C_15 
REMARK    3  A    between atoms: C_16  and  O_17 
REMARK    4  A    between atoms: C_19  and  O_20 
REMARK    5  A    between atoms: C_22  and  C_23 
REMARK       I    between atoms: C_23  and  N_25 
REMARK    6  A    between atoms: N_25  and  C_27 
REMARK    7  A    between atoms: C_27  and  C_28 
ROOT
HETATM    1  C   UNL     1      -2.048  15.750  20.767  0.00  0.00     0.046 A 
HETATM    2  C   UNL     1      -3.321  16.276  20.570  0.00  0.00     0.082 A 
HETATM    3  C   UNL     1      -4.446  15.500  20.868  0.00  0.00     0.075 A 
HETATM    4  C   UNL     1      -4.311  14.191  21.362  0.00  0.00     0.084 A 
HETATM    5  C   UNL     1      -1.928  14.399  21.206  0.00  0.00     0.038 A 
HETATM    6  C   UNL     1      -3.039  13.608  21.555  0.00  0.00     0.066 A 
ENDROOT
BRANCH   1   7
HETATM    7  C   UNL     1      -0.767  16.464  20.529  0.00  0.00     0.172 A 
HETATM    8  N   UNL     1       0.424  16.311  21.206  0.00  0.00    -0.244 N 
HETATM    9  C   UNL     1       1.298  17.197  20.614  0.00  0.00     0.349 A 
HETATM   10  O   UNL     1       2.484  17.395  20.837  0.00  0.00    -0.245 OA
HETATM   11  N   UNL     1       0.563  17.851  19.631  0.00  0.00    -0.226 N 
HETATM   12  H   UNL     1       0.922  18.538  18.994  0.00  0.00     0.194 HD
HETATM   13  N   UNL     1      -0.709  17.372  19.589  0.00  0.00    -0.151 NA
BRANCH   8  14
HETATM   14  C   UNL     1       0.847  15.487  22.273  0.00  0.00     0.051 A 
HETATM   15  C   UNL     1       1.517  14.264  22.116  0.00  0.00    -0.035 A 
HETATM   16  C   UNL     1       1.985  13.759  20.780  0.00  0.00     0.050 C 
HETATM   17  C   UNL     1       1.930  13.559  23.271  0.00  0.00     0.009 A 
HETATM   18  C   UNL     1       1.734  14.083  24.550  0.00  0.00     0.001 A 
HETATM   19  C   UNL     1       1.132  15.327  24.699  0.00  0.00     0.002 A 
HETATM   20  C   UNL     1       0.697  16.018  23.573  0.00  0.00     0.031 A 
ENDBRANCH   8  14
ENDBRANCH   1   7
BRANCH   2  21
HETATM   21  O   UNL     1      -3.602  17.505  20.048  0.00  0.00    -0.360 OA
HETATM   22  H   UNL     1      -4.308  17.936  20.556  0.00  0.00     0.217 HD
ENDBRANCH   2  21
BRANCH   6  23
HETATM   23  C   UNL     1      -2.889  12.333  22.371  0.00  0.00     0.256 C 
HETATM   24  O   UNL     1      -3.046  11.268  21.768  0.00  0.00    -0.267 OA
HETATM   25  N   UNL     1      -2.721  12.322  23.772  0.00  0.00    -0.348 N 
HETATM   26  C   UNL     1      -2.231  13.433  24.565  0.00  0.00     0.153 C 
BRANCH  25  27
HETATM   27  C   UNL     1      -3.020  11.075  24.519  0.00  0.00     0.164 C 
BRANCH  27  28
HETATM   28  C   UNL     1      -1.788  10.421  25.134  0.00  0.00    -0.034 A 
HETATM   29  C   UNL     1      -0.794   9.967  24.243  0.00  0.00     0.009 A 
HETATM   30  C   UNL     1       0.380   9.367  24.692  0.00  0.00     0.001 A 
HETATM   31  C   UNL     1       0.601   9.215  26.053  0.00  0.00     0.001 A 
HETATM   32  C   UNL     1      -0.346   9.682  26.958  0.00  0.00     0.007 A 
HETATM   33  C   UNL     1      -1.548  10.284  26.523  0.00  0.00    -0.054 A 
HETATM   34  C   UNL     1      -2.470  10.809  27.591  0.00  0.00     0.049 C 
ENDBRANCH  27  28
ENDBRANCH  25  27
ENDBRANCH   6  23
BRANCH   4  35
HETATM   35  O   UNL     1      -5.463  13.501  21.626  0.00  0.00    -0.360 OA
HETATM   36  H   UNL     1      -5.304  12.851  22.336  0.00  0.00     0.217 HD
ENDBRANCH   4  35
TORSDOF 7
ENDMDL
MODEL 2
REMARK VINA RESULT:    -9.978      2.943      7.399
REMARK INTER + INTRA:         -14.401
REMARK INTER:                 -13.189
REMARK INTRA:                  -1.212
REMARK UNBOUND:                -0.923
REMARK  7 active torsions:
REMARK  status: ('A' for Active; 'I' for Inactive)
REMARK    1  A    between atoms: C_7  and  N_8 
REMARK    2  A    between atoms: C_14  and  C_15 
REMARK    3  A    between atoms: C_16  and  O_17 
REMARK    4  A    between atoms: C_19  and  O_20 
REMARK    5  A    between atoms: C_22  and  C_23 
REMARK       I    between atoms: C_23  and  N_25 
REMARK    6  A    between atoms: N_25  and  C_27 
REMARK    7  A    between atoms: C_27  and  C_28 
ROOT
HETATM    1  C   UNL     1      -2.372  13.394  26.186  0.00  0.00     0.046 A 
HETATM    2  C   UNL     1      -2.250  14.156  27.343  0.00  0.00     0.082 A 
HETATM    3  C   UNL     1      -1.164  15.024  27.491  0.00  0.00     0.075 A 
HETATM    4  C   UNL     1      -0.187  15.137  26.487  0.00  0.00     0.084 A 
HETATM    5  C   UNL     1      -1.340  13.470  25.206  0.00  0.00     0.038 A 
HETATM    6  C   UNL     1      -0.257  14.365  25.306  0.00  0.00     0.066 A 
ENDROOT
BRANCH   1   7
HETATM    7  C   UNL     1      -3.484  12.458  25.874  0.00  0.00     0.172 A 
HETATM    8  N   UNL     1      -3.860  11.975  24.640  0.00  0.00    -0.244 N 
HETATM    9  C   UNL     1      -4.941  11.154  24.882  0.00  0.00     0.349 A 
HETATM   10  O   UNL     1      -5.590  10.465  24.108  0.00  0.00    -0.245 OA
HETATM   11  N   UNL     1      -5.164  11.220  26.253  0.00  0.00    -0.226 N 
HETATM   12  H   UNL     1      -5.864  10.706  26.755  0.00  0.00     0.194 HD
HETATM   13  N   UNL     1      -4.243  12.024  26.848  0.00  0.00    -0.151 NA
BRANCH   8  14
HETATM   14  C   UNL     1      -3.373  12.154  23.326  0.00  0.00     0.051 A 
HETATM   15  C   UNL     1      -3.608  13.292  22.539  0.00  0.00    -0.035 A 
HETATM   16  C   UNL     1      -4.298  14.518  23.068  0.00  0.00     0.050 C 
HETATM   17  C   UNL     1      -3.020  13.367  21.255  0.00  0.00     0.009 A 
HETATM   18  C   UNL     1      -2.172  12.363  20.785  0.00  0.00     0.001 A 
HETATM   19  C   UNL     1      -1.885  11.269  21.594  0.00  0.00     0.002 A 
HETATM   20  C   UNL     1      -2.479  11.171  22.849  0.00  0.00     0.031 A 
ENDBRANCH   8  14
ENDBRANCH   1   7
BRANCH   2  21
HETATM   21  O   UNL     1      -3.089  14.109  28.418  0.00  0.00    -0.360 OA
HETATM   22  H   UNL     1      -3.882  13.592  28.208  0.00  0.00     0.217 HD
ENDBRANCH   2  21
BRANCH   6  23
HETATM   23  C   UNL     1       0.609  14.711  24.104  0.00  0.00     0.256 C 
HETATM   24  O   UNL     1       0.810  15.911  23.893  0.00  0.00    -0.267 OA
HETATM   25  N   UNL     1       1.062  13.755  23.171  0.00  0.00    -0.348 N 
HETATM   26  C   UNL     1       1.172  12.331  23.419  0.00  0.00     0.153 C 
BRANCH  25  27
HETATM   27  C   UNL     1       1.509  14.216  21.833  0.00  0.00     0.164 C 
BRANCH  27  28
HETATM   28  C   UNL     1       2.975  14.631  21.789  0.00  0.00    -0.034 A 
HETATM   29  C   UNL     1       3.774  14.270  22.892  0.00  0.00     0.009 A 
HETATM   30  C   UNL     1       5.130  14.585  22.955  0.00  0.00     0.001 A 
HETATM   31  C   UNL     1       5.730  15.262  21.903  0.00  0.00     0.001 A 
HETATM   32  C   UNL     1       4.975  15.604  20.787  0.00  0.00     0.007 A 
HETATM   33  C   UNL     1       3.598  15.304  20.708  0.00  0.00    -0.054 A 
HETATM   34  C   UNL     1       2.896  15.665  19.427  0.00  0.00     0.049 C 
ENDBRANCH  27  28
ENDBRANCH  25  27
ENDBRANCH   6  23
BRANCH   4  35
HETATM   35  O   UNL     1       0.844  16.009  26.713  0.00  0.00    -0.360 OA
HETATM   36  H   UNL     1       0.796  16.350  27.625  0.00  0.00     0.217 HD
ENDBRANCH   4  35
TORSDOF 7
ENDMDL
MODEL 3
REMARK VINA RESULT:    -9.866      1.833      5.925
REMARK INTER + INTRA:         -14.250
REMARK INTER:                 -11.372
REMARK INTRA:                  -2.879
REMARK UNBOUND:                -0.923
REMARK  7 active torsions:
REMARK  status: ('A' for Active; 'I' for Inactive)
REMARK    1  A    between atoms: C_7  and  N_8 
REMARK    2  A    between atoms: C_14  and  C_15 
REMARK    3  A    between atoms: C_16  and  O_17 
REMARK    4  A    between atoms: C_19  and  O_20 
REMARK    5  A    between atoms: C_22  and  C_23 
REMARK       I    between atoms: C_23  and  N_25 
REMARK    6  A    between atoms: N_25  and  C_27 
REMARK    7  A    between atoms: C_27  and  C_28 
ROOT
HETATM    1  C   UNL     1      -3.060  13.921  22.050  0.00  0.00     0.046 A 
HETATM    2  C   UNL     1      -4.302  14.281  21.534  0.00  0.00     0.082 A 
HETATM    3  C   UNL     1      -4.426  15.450  20.778  0.00  0.00     0.075 A 
HETATM    4  C   UNL     1      -3.315  16.274  20.532  0.00  0.00     0.084 A 
HETATM    5  C   UNL     1      -1.957  14.800  21.848  0.00  0.00     0.038 A 
HETATM    6  C   UNL     1      -2.041  15.961  21.056  0.00  0.00     0.066 A 
ENDROOT
BRANCH   1   7
HETATM    7  C   UNL     1      -2.769  12.697  22.840  0.00  0.00     0.172 A 
HETATM    8  N   UNL     1      -1.832  12.538  23.838  0.00  0.00    -0.244 N 
HETATM    9  C   UNL     1      -1.950  11.226  24.246  0.00  0.00     0.349 A 
HETATM   10  O   UNL     1      -1.364  10.627  25.136  0.00  0.00    -0.245 OA
HETATM   11  N   UNL     1      -2.937  10.669  23.441  0.00  0.00    -0.226 N 
HETATM   12  H   UNL     1      -3.284   9.730  23.509  0.00  0.00     0.194 HD
HETATM   13  N   UNL     1      -3.438  11.601  22.586  0.00  0.00    -0.151 NA
BRANCH   8  14
HETATM   14  C   UNL     1      -0.890  13.399  24.445  0.00  0.00     0.051 A 
HETATM   15  C   UNL     1       0.445  13.531  24.035  0.00  0.00    -0.035 A 
HETATM   16  C   UNL     1       0.988  12.865  22.801  0.00  0.00     0.050 C 
HETATM   17  C   UNL     1       1.273  14.468  24.698  0.00  0.00     0.009 A 
HETATM   18  C   UNL     1       0.772  15.293  25.706  0.00  0.00     0.001 A 
HETATM   19  C   UNL     1      -0.569  15.207  26.063  0.00  0.00     0.002 A 
HETATM   20  C   UNL     1      -1.387  14.273  25.437  0.00  0.00     0.031 A 
ENDBRANCH   8  14
ENDBRANCH   1   7
BRANCH   2  21
HETATM   21  O   UNL     1      -5.472  13.609  21.738  0.00  0.00    -0.360 OA
HETATM   22  H   UNL     1      -6.211  14.231  21.818  0.00  0.00     0.217 HD
ENDBRANCH   2  21
BRANCH   6  23
HETATM   23  C   UNL     1      -0.797  16.668  20.537  0.00  0.00     0.256 C 
HETATM   24  O   UNL     1      -0.688  16.767  19.312  0.00  0.00    -0.267 OA
HETATM   25  N   UNL     1       0.268  17.077  21.366  0.00  0.00    -0.348 N 
HETATM   26  C   UNL     1       0.176  17.304  22.796  0.00  0.00     0.153 C 
BRANCH  25  27
HETATM   27  C   UNL     1       1.592  17.345  20.752  0.00  0.00     0.164 C 
BRANCH  27  28
HETATM   28  C   UNL     1       2.647  16.300  21.096  0.00  0.00    -0.034 A 
HETATM   29  C   UNL     1       3.346  16.473  22.308  0.00  0.00     0.009 A 
HETATM   30  C   UNL     1       4.322  15.572  22.730  0.00  0.00     0.001 A 
HETATM   31  C   UNL     1       4.619  14.461  21.954  0.00  0.00     0.001 A 
HETATM   32  C   UNL     1       3.924  14.247  20.769  0.00  0.00     0.007 A 
HETATM   33  C   UNL     1       2.939  15.152  20.318  0.00  0.00    -0.054 A 
HETATM   34  C   UNL     1       2.208  14.786  19.054  0.00  0.00     0.049 C 
ENDBRANCH  27  28
ENDBRANCH  25  27
ENDBRANCH   6  23
BRANCH   4  35
HETATM   35  O   UNL     1      -3.525  17.400  19.783  0.00  0.00    -0.360 OA
HETATM   36  H   UNL     1      -3.528  18.186  20.360  0.00  0.00     0.217 HD
ENDBRANCH   4  35
TORSDOF 7
ENDMDL
MODEL 4
REMARK VINA RESULT:    -9.702      2.796      7.472
REMARK INTER + INTRA:         -14.028
REMARK INTER:                 -12.575
REMARK INTRA:                  -1.453
REMARK UNBOUND:                -0.923
REMARK  7 active torsions:
REMARK  status: ('A' for Active; 'I' for Inactive)
REMARK    1  A    between atoms: C_7  and  N_8 
REMARK    2  A    between atoms: C_14  and  C_15 
REMARK    3  A    between atoms: C_16  and  O_17 
REMARK    4  A    between atoms: C_19  and  O_20 
REMARK    5  A    between atoms: C_22  and  C_23 
REMARK       I    between atoms: C_23  and  N_25 
REMARK    6  A    between atoms: N_25  and  C_27 
REMARK    7  A    between atoms: C_27  and  C_28 
ROOT
HETATM    1  C   UNL     1      -2.136  13.382  26.018  0.00  0.00     0.046 A 
HETATM    2  C   UNL     1      -2.108  14.200  27.142  0.00  0.00     0.082 A 
HETATM    3  C   UNL     1      -1.047  15.093  27.324  0.00  0.00     0.075 A 
HETATM    4  C   UNL     1      -0.002  15.175  26.388  0.00  0.00     0.084 A 
HETATM    5  C   UNL     1      -1.037  13.429  25.111  0.00  0.00     0.038 A 
HETATM    6  C   UNL     1       0.023  14.346  25.244  0.00  0.00     0.066 A 
ENDROOT
BRANCH   1   7
HETATM    7  C   UNL     1      -3.209  12.414  25.674  0.00  0.00     0.172 A 
HETATM    8  N   UNL     1      -3.880  12.285  24.476  0.00  0.00    -0.244 N 
HETATM    9  C   UNL     1      -4.776  11.255  24.667  0.00  0.00     0.349 A 
HETATM   10  O   UNL     1      -5.559  10.742  23.881  0.00  0.00    -0.245 OA
HETATM   11  N   UNL     1      -4.606  10.847  25.985  0.00  0.00    -0.226 N 
HETATM   12  H   UNL     1      -5.089  10.088  26.428  0.00  0.00     0.194 HD
HETATM   13  N   UNL     1      -3.623  11.570  26.585  0.00  0.00    -0.151 NA
BRANCH   8  14
HETATM   14  C   UNL     1      -3.802  12.950  23.232  0.00  0.00     0.051 A 
HETATM   15  C   UNL     1      -3.078  12.482  22.125  0.00  0.00    -0.035 A 
HETATM   16  C   UNL     1      -2.412  11.134  22.098  0.00  0.00     0.050 C 
HETATM   17  C   UNL     1      -3.123  13.220  20.919  0.00  0.00     0.009 A 
HETATM   18  C   UNL     1      -3.912  14.365  20.798  0.00  0.00     0.001 A 
HETATM   19  C   UNL     1      -4.681  14.788  21.876  0.00  0.00     0.002 A 
HETATM   20  C   UNL     1      -4.626  14.086  23.075  0.00  0.00     0.031 A 
ENDBRANCH   8  14
ENDBRANCH   1   7
BRANCH   2  21
HETATM   21  O   UNL     1      -3.021  14.190  28.156  0.00  0.00    -0.360 OA
HETATM   22  H   UNL     1      -3.872  13.847  27.843  0.00  0.00     0.217 HD
ENDBRANCH   2  21
BRANCH   6  23
HETATM   23  C   UNL     1       0.968  14.649  24.091  0.00  0.00     0.256 C 
HETATM   24  O   UNL     1       1.582  15.719  24.145  0.00  0.00    -0.267 OA
HETATM   25  N   UNL     1       1.064  13.850  22.933  0.00  0.00    -0.348 N 
HETATM   26  C   UNL     1       0.662  12.459  22.841  0.00  0.00     0.153 C 
BRANCH  25  27
HETATM   27  C   UNL     1       1.660  14.434  21.706  0.00  0.00     0.164 C 
BRANCH  27  28
HETATM   28  C   UNL     1       0.820  15.548  21.091  0.00  0.00    -0.034 A 
HETATM   29  C   UNL     1      -0.541  15.598  21.458  0.00  0.00     0.009 A 
HETATM   30  C   UNL     1      -1.399  16.581  20.970  0.00  0.00     0.001 A 
HETATM   31  C   UNL     1      -0.916  17.553  20.106  0.00  0.00     0.001 A 
HETATM   32  C   UNL     1       0.428  17.549  19.751  0.00  0.00     0.007 A 
HETATM   33  C   UNL     1       1.313  16.556  20.227  0.00  0.00    -0.054 A 
HETATM   34  C   UNL     1       2.759  16.687  19.828  0.00  0.00     0.049 C 
ENDBRANCH  27  28
ENDBRANCH  25  27
ENDBRANCH   6  23
BRANCH   4  35
HETATM   35  O   UNL     1       0.997  16.074  26.643  0.00  0.00    -0.360 OA
HETATM   36  H   UNL     1       0.833  16.520  27.494  0.00  0.00     0.217 HD
ENDBRANCH   4  35
TORSDOF 7
ENDMDL
MODEL 5
REMARK VINA RESULT:    -9.413      3.010      7.882
REMARK INTER + INTRA:         -13.638
REMARK INTER:                 -11.861
REMARK INTRA:                  -1.777
REMARK UNBOUND:                -0.923
REMARK  7 active torsions:
REMARK  status: ('A' for Active; 'I' for Inactive)
REMARK    1  A    between atoms: C_7  and  N_8 
REMARK    2  A    between atoms: C_14  and  C_15 
REMARK    3  A    between atoms: C_16  and  O_17 
REMARK    4  A    between atoms: C_19  and  O_20 
REMARK    5  A    between atoms: C_22  and  C_23 
REMARK       I    between atoms: C_23  and  N_25 
REMARK    6  A    between atoms: N_25  and  C_27 
REMARK    7  A    between atoms: C_27  and  C_28 
ROOT
HETATM    1  C   UNL     1      -2.360  10.877  26.727  0.00  0.00     0.046 A 
HETATM    2  C   UNL     1      -3.750  10.938  26.693  0.00  0.00     0.082 A 
HETATM    3  C   UNL     1      -4.386  11.747  25.748  0.00  0.00     0.075 A 
HETATM    4  C   UNL     1      -3.643  12.507  24.829  0.00  0.00     0.084 A 
HETATM    5  C   UNL     1      -1.619  11.703  25.832  0.00  0.00     0.038 A 
HETATM    6  C   UNL     1      -2.231  12.496  24.841  0.00  0.00     0.066 A 
ENDROOT
BRANCH   1   7
HETATM    7  C   UNL     1      -1.548  10.040  27.647  0.00  0.00     0.172 A 
HETATM    8  N   UNL     1      -0.647   9.051  27.317  0.00  0.00    -0.244 N 
HETATM    9  C   UNL     1      -0.167   8.576  28.519  0.00  0.00     0.349 A 
HETATM   10  O   UNL     1       0.684   7.728  28.742  0.00  0.00    -0.245 OA
HETATM   11  N   UNL     1      -0.837   9.296  29.503  0.00  0.00    -0.226 N 
HETATM   12  H   UNL     1      -0.689   9.210  30.491  0.00  0.00     0.194 HD
HETATM   13  N   UNL     1      -1.678  10.204  28.939  0.00  0.00    -0.151 NA
BRANCH   8  14
HETATM   14  C   UNL     1      -0.184   8.515  26.095  0.00  0.00     0.051 A 
HETATM   15  C   UNL     1       0.782   9.120  25.276  0.00  0.00    -0.035 A 
HETATM   16  C   UNL     1       1.538  10.354  25.686  0.00  0.00     0.050 C 
HETATM   17  C   UNL     1       1.195   8.453  24.099  0.00  0.00     0.009 A 
HETATM   18  C   UNL     1       0.704   7.188  23.773  0.00  0.00     0.001 A 
HETATM   19  C   UNL     1      -0.201   6.560  24.621  0.00  0.00     0.002 A 
HETATM   20  C   UNL     1      -0.635   7.217  25.767  0.00  0.00     0.031 A 
ENDBRANCH   8  14
ENDBRANCH   1   7
BRANCH   2  21
HETATM   21  O   UNL     1      -4.594  10.300  27.555  0.00  0.00    -0.360 OA
HETATM   22  H   UNL     1      -4.745   9.386  27.268  0.00  0.00     0.217 HD
ENDBRANCH   2  21
BRANCH   6  23
HETATM   23  C   UNL     1      -1.443  13.058  23.668  0.00  0.00     0.256 C 
HETATM   24  O   UNL     1      -0.854  14.127  23.858  0.00  0.00    -0.267 OA
HETATM   25  N   UNL     1      -1.469  12.500  22.373  0.00  0.00    -0.348 N 
HETATM   26  C   UNL     1      -1.844  11.134  22.059  0.00  0.00     0.153 C 
BRANCH  25  27
HETATM   27  C   UNL     1      -1.045  13.336  21.223  0.00  0.00     0.164 C 
BRANCH  27  28
HETATM   28  C   UNL     1      -2.091  14.357  20.792  0.00  0.00    -0.034 A 
HETATM   29  C   UNL     1      -3.356  13.857  20.420  0.00  0.00     0.009 A 
HETATM   30  C   UNL     1      -4.393  14.699  20.023  0.00  0.00     0.001 A 
HETATM   31  C   UNL     1      -4.196  16.072  19.997  0.00  0.00     0.001 A 
HETATM   32  C   UNL     1      -2.970  16.597  20.388  0.00  0.00     0.007 A 
HETATM   33  C   UNL     1      -1.903  15.761  20.785  0.00  0.00    -0.054 A 
HETATM   34  C   UNL     1      -0.643  16.442  21.248  0.00  0.00     0.049 C 
ENDBRANCH  27  28
ENDBRANCH  25  27
ENDBRANCH   6  23
BRANCH   4  35
HETATM   35  O   UNL     1      -4.345  13.274  23.938  0.00  0.00    -0.360 OA
HETATM   36  H   UNL     1      -4.419  14.186  24.273  0.00  0.00     0.217 HD
ENDBRANCH   4  35
TORSDOF 7
ENDMDL
MODEL 6
REMARK VINA RESULT:    -9.360      2.161      6.280
REMARK INTER + INTRA:         -13.567
REMARK INTER:                 -11.940
REMARK INTRA:                  -1.626
REMARK UNBOUND:                -0.923
REMARK  7 active torsions:
REMARK  status: ('A' for Active; 'I' for Inactive)
REMARK    1  A    between atoms: C_7  and  N_8 
REMARK    2  A    between atoms: C_14  and  C_15 
REMARK    3  A    between atoms: C_16  and  O_17 
REMARK    4  A    between atoms: C_19  and  O_20 
REMARK    5  A    between atoms: C_22  and  C_23 
REMARK       I    between atoms: C_23  and  N_25 
REMARK    6  A    between atoms: N_25  and  C_27 
REMARK    7  A    between atoms: C_27  and  C_28 
ROOT
HETATM    1  C   UNL     1      -3.397  14.137  22.971  0.00  0.00     0.046 A 
HETATM    2  C   UNL     1      -4.196  14.245  21.837  0.00  0.00     0.082 A 
HETATM    3  C   UNL     1      -3.792  15.064  20.778  0.00  0.00     0.075 A 
HETATM    4  C   UNL     1      -2.589  15.787  20.842  0.00  0.00     0.084 A 
HETATM    5  C   UNL     1      -2.212  14.927  23.048  0.00  0.00     0.038 A 
HETATM    6  C   UNL     1      -1.757  15.727  21.983  0.00  0.00     0.066 A 
ENDROOT
BRANCH   1   7
HETATM    7  C   UNL     1      -3.677  13.284  24.154  0.00  0.00     0.172 A 
HETATM    8  N   UNL     1      -2.891  12.279  24.676  0.00  0.00    -0.244 N 
HETATM    9  C   UNL     1      -3.591  11.793  25.761  0.00  0.00     0.349 A 
HETATM   10  O   UNL     1      -3.282  10.930  26.569  0.00  0.00    -0.245 OA
HETATM   11  N   UNL     1      -4.773  12.524  25.804  0.00  0.00    -0.226 N 
HETATM   12  H   UNL     1      -5.489  12.435  26.501  0.00  0.00     0.194 HD
HETATM   13  N   UNL     1      -4.799  13.449  24.807  0.00  0.00    -0.151 NA
BRANCH   8  14
HETATM   14  C   UNL     1      -1.634  11.736  24.329  0.00  0.00     0.051 A 
HETATM   15  C   UNL     1      -0.399  12.307  24.673  0.00  0.00    -0.035 A 
HETATM   16  C   UNL     1      -0.279  13.501  25.579  0.00  0.00     0.050 C 
HETATM   17  C   UNL     1       0.790  11.635  24.305  0.00  0.00     0.009 A 
HETATM   18  C   UNL     1       0.753  10.397  23.662  0.00  0.00     0.001 A 
HETATM   19  C   UNL     1      -0.471   9.800  23.384  0.00  0.00     0.002 A 
HETATM   20  C   UNL     1      -1.648  10.464  23.717  0.00  0.00     0.031 A 
ENDBRANCH   8  14
ENDBRANCH   1   7
BRANCH   2  21
HETATM   21  O   UNL     1      -5.410  13.647  21.661  0.00  0.00    -0.360 OA
HETATM   22  H   UNL     1      -6.124  14.236  21.951  0.00  0.00     0.217 HD
ENDBRANCH   2  21
BRANCH   6  23
HETATM   23  C   UNL     1      -0.329  16.248  21.926  0.00  0.00     0.256 C 
HETATM   24  O   UNL     1      -0.140  17.392  22.351  0.00  0.00    -0.267 OA
HETATM   25  N   UNL     1       0.728  15.555  21.302  0.00  0.00    -0.348 N 
HETATM   26  C   UNL     1       0.750  14.129  21.034  0.00  0.00     0.153 C 
BRANCH  25  27
HETATM   27  C   UNL     1       1.947  16.306  20.912  0.00  0.00     0.164 C 
BRANCH  27  28
HETATM   28  C   UNL     1       3.239  15.684  21.430  0.00  0.00    -0.034 A 
HETATM   29  C   UNL     1       4.324  15.626  20.533  0.00  0.00     0.009 A 
HETATM   30  C   UNL     1       5.557  15.091  20.901  0.00  0.00     0.001 A 
HETATM   31  C   UNL     1       5.743  14.608  22.189  0.00  0.00     0.001 A 
HETATM   32  C   UNL     1       4.701  14.680  23.106  0.00  0.00     0.007 A 
HETATM   33  C   UNL     1       3.441  15.209  22.750  0.00  0.00    -0.054 A 
HETATM   34  C   UNL     1       2.408  15.296  23.841  0.00  0.00     0.049 C 
ENDBRANCH  27  28
ENDBRANCH  25  27
ENDBRANCH   6  23
BRANCH   4  35
HETATM   35  O   UNL     1      -2.269  16.566  19.763  0.00  0.00    -0.360 OA
HETATM   36  H   UNL     1      -1.322  16.469  19.553  0.00  0.00     0.217 HD
ENDBRANCH   4  35
TORSDOF 7
ENDMDL
MODEL 7
REMARK VINA RESULT:    -9.321      2.879      7.420
REMARK INTER + INTRA:         -13.514
REMARK INTER:                 -11.428
REMARK INTRA:                  -2.085
REMARK UNBOUND:                -0.923
REMARK  7 active torsions:
REMARK  status: ('A' for Active; 'I' for Inactive)
REMARK    1  A    between atoms: C_7  and  N_8 
REMARK    2  A    between atoms: C_14  and  C_15 
REMARK    3  A    between atoms: C_16  and  O_17 
REMARK    4  A    between atoms: C_19  and  O_20 
REMARK    5  A    between atoms: C_22  and  C_23 
REMARK       I    between atoms: C_23  and  N_25 
REMARK    6  A    between atoms: N_25  and  C_27 
REMARK    7  A    between atoms: C_27  and  C_28 
ROOT
HETATM    1  C   UNL     1      -2.535  10.779  26.197  0.00  0.00     0.046 A 
HETATM    2  C   UNL     1      -3.923  10.863  26.166  0.00  0.00     0.082 A 
HETATM    3  C   UNL     1      -4.557  11.474  25.079  0.00  0.00     0.075 A 
HETATM    4  C   UNL     1      -3.812  12.011  24.016  0.00  0.00     0.084 A 
HETATM    5  C   UNL     1      -1.790  11.386  25.144  0.00  0.00     0.038 A 
HETATM    6  C   UNL     1      -2.400  11.971  24.017  0.00  0.00     0.066 A 
ENDROOT
BRANCH   1   7
HETATM    7  C   UNL     1      -1.727  10.132  27.263  0.00  0.00     0.172 A 
HETATM    8  N   UNL     1      -0.743   9.178  27.116  0.00  0.00    -0.244 N 
HETATM    9  C   UNL     1      -0.307   8.901  28.395  0.00  0.00     0.349 A 
HETATM   10  O   UNL     1       0.584   8.155  28.774  0.00  0.00    -0.245 OA
HETATM   11  N   UNL     1      -1.083   9.691  29.236  0.00  0.00    -0.226 N 
HETATM   12  H   UNL     1      -0.990   9.747  30.233  0.00  0.00     0.194 HD
HETATM   13  N   UNL     1      -1.946  10.453  28.513  0.00  0.00    -0.151 NA
BRANCH   8  14
HETATM   14  C   UNL     1      -0.171   8.523  26.003  0.00  0.00     0.051 A 
HETATM   15  C   UNL     1       0.884   9.037  25.234  0.00  0.00    -0.035 A 
HETATM   16  C   UNL     1       1.621  10.296  25.601  0.00  0.00     0.050 C 
HETATM   17  C   UNL     1       1.399   8.256  24.172  0.00  0.00     0.009 A 
HETATM   18  C   UNL     1       0.917   6.972  23.917  0.00  0.00     0.001 A 
HETATM   19  C   UNL     1      -0.081   6.437  24.724  0.00  0.00     0.002 A 
HETATM   20  C   UNL     1      -0.614   7.205  25.754  0.00  0.00     0.031 A 
ENDBRANCH   8  14
ENDBRANCH   1   7
BRANCH   2  21
HETATM   21  O   UNL     1      -4.768  10.436  27.149  0.00  0.00    -0.360 OA
HETATM   22  H   UNL     1      -5.617  10.159  26.770  0.00  0.00     0.217 HD
ENDBRANCH   2  21
BRANCH   6  23
HETATM   23  C   UNL     1      -1.617  12.261  22.746  0.00  0.00     0.256 C 
HETATM   24  O   UNL     1      -1.326  11.291  22.041  0.00  0.00    -0.267 OA
HETATM   25  N   UNL     1      -1.107  13.535  22.420  0.00  0.00    -0.348 N 
HETATM   26  C   UNL     1      -1.592  14.793  22.955  0.00  0.00     0.153 C 
BRANCH  25  27
HETATM   27  C   UNL     1      -0.013  13.636  21.421  0.00  0.00     0.164 C 
BRANCH  27  28
HETATM   28  C   UNL     1       1.349  13.937  22.036  0.00  0.00    -0.034 A 
HETATM   29  C   UNL     1       1.576  13.468  23.346  0.00  0.00     0.009 A 
HETATM   30  C   UNL     1       2.788  13.673  24.002  0.00  0.00     0.001 A 
HETATM   31  C   UNL     1       3.816  14.347  23.358  0.00  0.00     0.001 A 
HETATM   32  C   UNL     1       3.632  14.794  22.055  0.00  0.00     0.007 A 
HETATM   33  C   UNL     1       2.409  14.606  21.376  0.00  0.00    -0.054 A 
HETATM   34  C   UNL     1       2.346  15.076  19.947  0.00  0.00     0.049 C 
ENDBRANCH  27  28
ENDBRANCH  25  27
ENDBRANCH   6  23
BRANCH   4  35
HETATM   35  O   UNL     1      -4.511  12.593  22.993  0.00  0.00    -0.360 OA
HETATM   36  H   UNL     1      -4.883  11.904  22.413  0.00  0.00     0.217 HD
ENDBRANCH   4  35
TORSDOF 7
ENDMDL
MODEL 8
REMARK VINA RESULT:    -9.265      1.796      3.097
REMARK INTER + INTRA:         -13.438
REMARK INTER:                 -10.663
REMARK INTRA:                  -2.775
REMARK UNBOUND:                -0.923
REMARK  7 active torsions:
REMARK  status: ('A' for Active; 'I' for Inactive)
REMARK    1  A    between atoms: C_7  and  N_8 
REMARK    2  A    between atoms: C_14  and  C_15 
REMARK    3  A    between atoms: C_16  and  O_17 
REMARK    4  A    between atoms: C_19  and  O_20 
REMARK    5  A    between atoms: C_22  and  C_23 
REMARK       I    between atoms: C_23  and  N_25 
REMARK    6  A    between atoms: N_25  and  C_27 
REMARK    7  A    between atoms: C_27  and  C_28 
ROOT
HETATM    1  C   UNL     1      -0.156  16.122  20.953  0.00  0.00     0.046 A 
HETATM    2  C   UNL     1      -0.593  17.026  19.990  0.00  0.00     0.082 A 
HETATM    3  C   UNL     1      -1.944  17.058  19.631  0.00  0.00     0.075 A 
HETATM    4  C   UNL     1      -2.871  16.185  20.225  0.00  0.00     0.084 A 
HETATM    5  C   UNL     1      -1.095  15.199  21.498  0.00  0.00     0.038 A 
HETATM    6  C   UNL     1      -2.468  15.234  21.188  0.00  0.00     0.066 A 
ENDROOT
BRANCH   1   7
HETATM    7  C   UNL     1       1.235  15.996  21.459  0.00  0.00     0.172 A 
HETATM    8  N   UNL     1       1.813  14.910  22.082  0.00  0.00    -0.244 N 
HETATM    9  C   UNL     1       3.108  15.294  22.361  0.00  0.00     0.349 A 
HETATM   10  O   UNL     1       4.021  14.658  22.866  0.00  0.00    -0.245 OA
HETATM   11  N   UNL     1       3.217  16.604  21.909  0.00  0.00    -0.226 N 
HETATM   12  H   UNL     1       4.050  17.162  21.935  0.00  0.00     0.194 HD
HETATM   13  N   UNL     1       2.049  17.014  21.345  0.00  0.00    -0.151 NA
BRANCH   8  14
HETATM   14  C   UNL     1       1.353  13.621  22.432  0.00  0.00     0.051 A 
HETATM   15  C   UNL     1       1.009  13.226  23.734  0.00  0.00    -0.035 A 
HETATM   16  C   UNL     1       0.961  14.186  24.889  0.00  0.00     0.050 C 
HETATM   17  C   UNL     1       0.514  11.917  23.941  0.00  0.00     0.009 A 
HETATM   18  C   UNL     1       0.311  11.040  22.874  0.00  0.00     0.001 A 
HETATM   19  C   UNL     1       0.588  11.458  21.578  0.00  0.00     0.002 A 
HETATM   20  C   UNL     1       1.100  12.733  21.363  0.00  0.00     0.031 A 
ENDBRANCH   8  14
ENDBRANCH   1   7
BRANCH   2  21
HETATM   21  O   UNL     1       0.200  17.891  19.294  0.00  0.00    -0.360 OA
HETATM   22  H   UNL     1       0.856  17.405  18.771  0.00  0.00     0.217 HD
ENDBRANCH   2  21
BRANCH   6  23
HETATM   23  C   UNL     1      -3.501  14.518  22.046  0.00  0.00     0.256 C 
HETATM   24  O   UNL     1      -4.342  15.227  22.606  0.00  0.00    -0.267 OA
HETATM   25  N   UNL     1      -3.454  13.138  22.331  0.00  0.00    -0.348 N 
HETATM   26  C   UNL     1      -2.745  12.145  21.546  0.00  0.00     0.153 C 
BRANCH  25  27
HETATM   27  C   UNL     1      -4.214  12.620  23.496  0.00  0.00     0.164 C 
BRANCH  27  28
HETATM   28  C   UNL     1      -3.326  12.147  24.642  0.00  0.00    -0.034 A 
HETATM   29  C   UNL     1      -3.137  10.756  24.771  0.00  0.00     0.009 A 
HETATM   30  C   UNL     1      -2.336  10.211  25.772  0.00  0.00     0.001 A 
HETATM   31  C   UNL     1      -1.688  11.047  26.669  0.00  0.00     0.001 A 
HETATM   32  C   UNL     1      -1.830  12.425  26.549  0.00  0.00     0.007 A 
HETATM   33  C   UNL     1      -2.645  12.998  25.548  0.00  0.00    -0.054 A 
HETATM   34  C   UNL     1      -2.674  14.501  25.472  0.00  0.00     0.049 C 
ENDBRANCH  27  28
ENDBRANCH  25  27
ENDBRANCH   6  23
BRANCH   4  35
HETATM   35  O   UNL     1      -4.173  16.281  19.814  0.00  0.00    -0.360 OA
HETATM   36  H   UNL     1      -4.213  16.298  18.840  0.00  0.00     0.217 HD
ENDBRANCH   4  35
TORSDOF 7
ENDMDL
MODEL 9
REMARK VINA RESULT:    -9.190      1.394      2.189
REMARK INTER + INTRA:         -13.336
REMARK INTER:                 -12.413
REMARK INTRA:                  -0.923
REMARK UNBOUND:                -0.923
REMARK  7 active torsions:
REMARK  status: ('A' for Active; 'I' for Inactive)
REMARK    1  A    between atoms: C_7  and  N_8 
REMARK    2  A    between atoms: C_14  and  C_15 
REMARK    3  A    between atoms: C_16  and  O_17 
REMARK    4  A    between atoms: C_19  and  O_20 
REMARK    5  A    between atoms: C_22  and  C_23 
REMARK       I    between atoms: C_23  and  N_25 
REMARK    6  A    between atoms: N_25  and  C_27 
REMARK    7  A    between atoms: C_27  and  C_28 
ROOT
HETATM    1  C   UNL     1      -2.034  15.829  20.781  0.00  0.00     0.046 A 
HETATM    2  C   UNL     1      -3.268  16.172  20.238  0.00  0.00     0.082 A 
HETATM    3  C   UNL     1      -4.412  15.460  20.611  0.00  0.00     0.075 A 
HETATM    4  C   UNL     1      -4.336  14.396  21.526  0.00  0.00     0.084 A 
HETATM    5  C   UNL     1      -1.962  14.707  21.657  0.00  0.00     0.038 A 
HETATM    6  C   UNL     1      -3.101  13.997  22.084  0.00  0.00     0.066 A 
ENDROOT
BRANCH   1   7
HETATM    7  C   UNL     1      -0.743  16.513  20.508  0.00  0.00     0.172 A 
HETATM    8  N   UNL     1       0.469  16.310  21.131  0.00  0.00    -0.244 N 
HETATM    9  C   UNL     1       1.344  17.187  20.525  0.00  0.00     0.349 A 
HETATM   10  O   UNL     1       2.542  17.346  20.704  0.00  0.00    -0.245 OA
HETATM   11  N   UNL     1       0.589  17.886  19.590  0.00  0.00    -0.226 N 
HETATM   12  H   UNL     1       0.941  18.579  18.956  0.00  0.00     0.194 HD
HETATM   13  N   UNL     1      -0.698  17.443  19.589  0.00  0.00    -0.151 NA
BRANCH   8  14
HETATM   14  C   UNL     1       0.911  15.448  22.160  0.00  0.00     0.051 A 
HETATM   15  C   UNL     1       1.385  14.143  21.954  0.00  0.00    -0.035 A 
HETATM   16  C   UNL     1       1.606  13.564  20.584  0.00  0.00     0.050 C 
HETATM   17  C   UNL     1       1.845  13.401  23.067  0.00  0.00     0.009 A 
HETATM   18  C   UNL     1       1.887  13.961  24.345  0.00  0.00     0.001 A 
HETATM   19  C   UNL     1       1.482  15.277  24.534  0.00  0.00     0.002 A 
HETATM   20  C   UNL     1       1.002  16.009  23.453  0.00  0.00     0.031 A 
ENDBRANCH   8  14
ENDBRANCH   1   7
BRANCH   2  21
HETATM   21  O   UNL     1      -3.483  17.141  19.302  0.00  0.00    -0.360 OA
HETATM   22  H   UNL     1      -3.586  16.747  18.422  0.00  0.00     0.217 HD
ENDBRANCH   2  21
BRANCH   6  23
HETATM   23  C   UNL     1      -3.061  13.072  23.291  0.00  0.00     0.256 C 
HETATM   24  O   UNL     1      -3.923  13.254  24.157  0.00  0.00    -0.267 OA
HETATM   25  N   UNL     1      -2.031  12.137  23.521  0.00  0.00    -0.348 N 
HETATM   26  C   UNL     1      -1.146  11.600  22.505  0.00  0.00     0.153 C 
BRANCH  25  27
HETATM   27  C   UNL     1      -1.837  11.607  24.894  0.00  0.00     0.164 C 
BRANCH  27  28
HETATM   28  C   UNL     1      -1.906  12.678  25.976  0.00  0.00    -0.034 A 
HETATM   29  C   UNL     1      -1.192  13.871  25.741  0.00  0.00     0.009 A 
HETATM   30  C   UNL     1      -1.194  14.923  26.654  0.00  0.00     0.001 A 
HETATM   31  C   UNL     1      -1.924  14.816  27.829  0.00  0.00     0.001 A 
HETATM   32  C   UNL     1      -2.663  13.665  28.075  0.00  0.00     0.007 A 
HETATM   33  C   UNL     1      -2.667  12.582  27.168  0.00  0.00    -0.054 A 
HETATM   34  C   UNL     1      -3.553  11.414  27.507  0.00  0.00     0.049 C 
ENDBRANCH  27  28
ENDBRANCH  25  27
ENDBRANCH   6  23
BRANCH   4  35
HETATM   35  O   UNL     1      -5.503  13.752  21.835  0.00  0.00    -0.360 OA
HETATM   36  H   UNL     1      -5.776  13.187  21.089  0.00  0.00     0.217 HD
ENDBRANCH   4  35
TORSDOF 7
ENDMDL
