MODEL 1
REMARK VINA RESULT:    -9.934      0.000      0.000
REMARK INTER + INTRA:         -11.580
REMARK INTER:                 -12.236
REMARK INTRA:                   0.656
REMARK UNBOUND:                 0.677
REMARK  9 active torsions:
REMARK  status: ('A' for Active; 'I' for Inactive)
REMARK    1  A    between atoms: N_2  and  C_4 
REMARK    2  A    between atoms: C_4  and  C_5 
REMARK    3  A    between atoms: C_5  and  N_6 
REMARK    4  A    between atoms: N_6  and  C_7 
REMARK    5  A    between atoms: C_20  and  O_21 
REMARK    6  A    between atoms: C_23  and  O_24 
REMARK    7  A    between atoms: O_24  and  C_25 
REMARK       I    between atoms: C_25  and  N_26 
REMARK    8  A    between atoms: C_33  and  O_34 
REMARK    9  A    between atoms: C_35  and  O_36 
ROOT
HETATM    1  C   UNL     1       3.806   6.232  22.607  0.00  0.00     0.066 C 
HETATM    2  C   UNL     1       3.770   8.115  22.703  0.00  0.00     0.182 C 
HETATM    3  O   UNL     1       3.340   8.769  23.666  0.00  0.00    -0.290 OA
HETATM    4  C   UNL     1       4.467   9.091  21.898  0.00  0.00     0.133 C 
HETATM    5  C   UNL     1       4.252   8.288  20.894  0.00  0.00     0.076 C 
HETATM    6  N   UNL     1       3.649   8.994  19.938  0.00  0.00    -0.326 N 
HETATM    7  C   UNL     1       3.788   8.352  18.812  0.00  0.00     0.232 C 
HETATM    8  O   UNL     1       4.833   7.909  18.380  0.00  0.00    -0.272 OA
HETATM    9  C   UNL     1       2.439   7.886  18.587  0.00  0.00     0.062 C 
HETATM   10  C   UNL     1       1.918   8.942  17.720  0.00  0.00     0.027 C 
HETATM   11  C   UNL     1       2.585   6.567  18.592  0.00  0.00     0.035 C 
HETATM   12  C   UNL     1       2.797   5.962  17.345  0.00  0.00    -0.021 C 
HETATM   13  C   UNL     1       2.236   4.776  17.272  0.00  0.00     0.004 C 
HETATM   14  C   UNL     1       1.591   4.404  16.013  0.00  0.00     0.177 C 
HETATM   15  C   UNL     1       1.150   3.017  16.157  0.00  0.00     0.194 C 
HETATM   16  C   UNL     1       0.545   2.391  14.954  0.00  0.00    -0.055 C 
HETATM   17  C   UNL     1       0.686   3.103  13.648  0.00  0.00     0.046 C 
HETATM   18  C   UNL     1      -0.143   1.243  15.078  0.00  0.00    -0.015 C 
HETATM   19  C   UNL     1      -0.273   0.351  13.914  0.00  0.00     0.035 C 
HETATM   20  C   UNL     1      -1.600   0.495  13.259  0.00  0.00     0.017 C 
HETATM   21  C   UNL     1       0.422  -0.905  14.446  0.00  0.00     0.154 C 
HETATM   22  C   UNL     1       2.083  -0.178  14.844  0.00  0.00     0.150 C 
HETATM   23  C   UNL     1       2.802   1.111  16.261  0.00  0.00     0.039 C 
HETATM   24  C   UNL     1       3.160   2.004  18.149  0.00  0.00    -0.012 C 
HETATM   25  C   UNL     1       2.739   0.168  18.436  0.00  0.00     0.010 C 
HETATM   26  C   UNL     1       3.369   3.436  19.806  0.00  0.00     0.049 C 
HETATM   27  C   UNL     1       3.860   5.180  21.064  0.00  0.00     0.019 C 
HETATM   28  C   UNL     1       4.732   6.609  20.807  0.00  0.00     0.203 C 
HETATM   29  O   UNL     1       5.933   6.515  21.119  0.00  0.00    -0.286 OA
HETATM   30  H   UNL     1       3.367   9.978  19.959  0.00  0.00     0.168 HD
ENDROOT
BRANCH   1  31
HETATM   31  N   UNL     1       4.508   6.644  24.358  0.00  0.00    -0.288 NA
HETATM   32  H   UNL     1       3.671   7.226  24.519  0.00  0.00     0.127 HD
BRANCH  31  33
HETATM   33  C   UNL     1       4.140   6.421  26.253  0.00  0.00     0.112 C 
BRANCH  33  34
HETATM   34  C   UNL     1       3.845   7.225  28.019  0.00  0.00     0.130 C 
BRANCH  34  35
HETATM   35  N   UNL     1       3.281   8.551  28.715  0.00  0.00    -0.420 N 
HETATM   36  C   UNL     1       1.836   8.748  28.783  0.00  0.00     0.142 C 
HETATM   37  C   UNL     1       3.891   9.051  29.956  0.00  0.00     0.142 C 
ENDBRANCH  34  35
ENDBRANCH  33  34
ENDBRANCH  31  33
ENDBRANCH   1  31
BRANCH  22  38
HETATM   38  O   UNL     1       2.840  -0.940  13.495  0.00  0.00    -0.388 OA
HETATM   39  C   UNL     1       4.141  -1.815  13.477  0.00  0.00     0.202 C 
ENDBRANCH  22  38
BRANCH  21  40
HETATM   40  O   UNL     1      -0.444  -1.737  15.238  0.00  0.00    -0.392 OA
HETATM   41  H   UNL     1      -1.314  -1.374  15.434  0.00  0.00     0.210 HD
ENDBRANCH  21  40
BRANCH  14  42
HETATM   42  O   UNL     1       0.357   5.023  15.814  0.00  0.00    -0.384 OA
HETATM   43  C   UNL     1       0.527   6.304  15.335  0.00  0.00     0.202 C 
ENDBRANCH  14  42
BRANCH  15  44
HETATM   44  O   UNL     1       0.486   2.654  17.397  0.00  0.00    -0.291 OA
BRANCH  44  45
HETATM   45  C   UNL     1      -0.756   3.162  17.569  0.00  0.00     0.359 C 
HETATM   46  N   UNL     1      -0.767   4.174  18.464  0.00  0.00    -0.346 N 
HETATM   47  H   UNL     1       0.054   4.643  18.806  0.00  0.00     0.161 HD
HETATM   48  H   UNL     1      -1.688   4.394  18.815  0.00  0.00     0.161 HD
HETATM   49  O   UNL     1      -1.815   2.720  17.153  0.00  0.00    -0.239 OA
ENDBRANCH  44  45
ENDBRANCH  15  44
TORSDOF 9
ENDMDL
MODEL 2
REMARK VINA RESULT:    -8.958      1.357      1.595
REMARK INTER + INTRA:         -10.375
REMARK INTER:                 -11.068
REMARK INTRA:                   0.693
REMARK UNBOUND:                 0.677
REMARK  9 active torsions:
REMARK  status: ('A' for Active; 'I' for Inactive)
REMARK    1  A    between atoms: N_2  and  C_4 
REMARK    2  A    between atoms: C_4  and  C_5 
REMARK    3  A    between atoms: C_5  and  N_6 
REMARK    4  A    between atoms: N_6  and  C_7 
REMARK    5  A    between atoms: C_20  and  O_21 
REMARK    6  A    between atoms: C_23  and  O_24 
REMARK    7  A    between atoms: O_24  and  C_25 
REMARK       I    between atoms: C_25  and  N_26 
REMARK    8  A    between atoms: C_33  and  O_34 
REMARK    9  A    between atoms: C_35  and  O_36 
ROOT
HETATM    1  C   UNL     1       2.854   6.199  23.429  0.00  0.00     0.066 C 
HETATM    2  C   UNL     1       3.143   8.061  23.350  0.00  0.00     0.182 C 
HETATM    3  O   UNL     1       2.633   8.892  24.116  0.00  0.00    -0.290 OA
HETATM    4  C   UNL     1       4.172   8.804  22.659  0.00  0.00     0.133 C 
HETATM    5  C   UNL     1       4.047   7.922  21.707  0.00  0.00     0.076 C 
HETATM    6  N   UNL     1       3.817   8.586  20.575  0.00  0.00    -0.326 N 
HETATM    7  C   UNL     1       4.088   7.791  19.578  0.00  0.00     0.232 C 
HETATM    8  O   UNL     1       5.104   7.137  19.456  0.00  0.00    -0.272 OA
HETATM    9  C   UNL     1       2.764   7.518  19.069  0.00  0.00     0.062 C 
HETATM   10  C   UNL     1       2.656   8.523  18.012  0.00  0.00     0.027 C 
HETATM   11  C   UNL     1       2.660   6.204  19.224  0.00  0.00     0.035 C 
HETATM   12  C   UNL     1       3.035   5.418  18.125  0.00  0.00    -0.021 C 
HETATM   13  C   UNL     1       2.297   4.337  18.019  0.00  0.00     0.004 C 
HETATM   14  C   UNL     1       1.898   3.912  16.678  0.00  0.00     0.177 C 
HETATM   15  C   UNL     1       1.189   2.642  16.829  0.00  0.00     0.194 C 
HETATM   16  C   UNL     1       0.769   1.970  15.573  0.00  0.00    -0.055 C 
HETATM   17  C   UNL     1       1.331   2.478  14.284  0.00  0.00     0.046 C 
HETATM   18  C   UNL     1      -0.128   0.970  15.623  0.00  0.00    -0.015 C 
HETATM   19  C   UNL     1      -0.152  -0.032  14.545  0.00  0.00     0.035 C 
HETATM   20  C   UNL     1      -1.245   0.234  13.573  0.00  0.00     0.017 C 
HETATM   21  C   UNL     1       0.161  -1.303  15.338  0.00  0.00     0.154 C 
HETATM   22  C   UNL     1       1.793  -0.802  16.068  0.00  0.00     0.150 C 
HETATM   23  C   UNL     1       2.395   0.529  17.501  0.00  0.00     0.039 C 
HETATM   24  C   UNL     1       2.472   1.589  19.335  0.00  0.00    -0.012 C 
HETATM   25  C   UNL     1       1.668  -0.106  19.668  0.00  0.00     0.010 C 
HETATM   26  C   UNL     1       2.559   3.171  20.861  0.00  0.00     0.049 C 
HETATM   27  C   UNL     1       3.063   4.962  22.044  0.00  0.00     0.019 C 
HETATM   28  C   UNL     1       4.217   6.192  21.887  0.00  0.00     0.203 C 
HETATM   29  O   UNL     1       5.278   5.950  22.492  0.00  0.00    -0.286 OA
HETATM   30  H   UNL     1       3.724   9.596  20.440  0.00  0.00     0.168 HD
ENDROOT
BRANCH   1  31
HETATM   31  N   UNL     1       3.203   6.716  25.257  0.00  0.00    -0.288 NA
HETATM   32  H   UNL     1       2.807   7.643  25.034  0.00  0.00     0.127 HD
BRANCH  31  33
HETATM   33  C   UNL     1       2.314   7.253  26.899  0.00  0.00     0.112 C 
BRANCH  33  34
HETATM   34  C   UNL     1       1.133   8.502  27.847  0.00  0.00     0.130 C 
BRANCH  34  35
HETATM   35  N   UNL     1      -0.306   9.195  27.739  0.00  0.00    -0.420 N 
HETATM   36  C   UNL     1      -0.885   9.800  28.935  0.00  0.00     0.142 C 
HETATM   37  C   UNL     1      -0.641  10.023  26.572  0.00  0.00     0.142 C 
ENDBRANCH  34  35
ENDBRANCH  33  34
ENDBRANCH  31  33
ENDBRANCH   1  31
BRANCH  22  38
HETATM   38  O   UNL     1       2.684  -1.840  15.018  0.00  0.00    -0.388 OA
HETATM   39  C   UNL     1       3.629  -1.444  13.831  0.00  0.00     0.202 C 
ENDBRANCH  22  38
BRANCH  21  40
HETATM   40  O   UNL     1      -0.999  -1.880  15.962  0.00  0.00    -0.392 OA
HETATM   41  H   UNL     1      -1.843  -1.472  15.742  0.00  0.00     0.210 HD
ENDBRANCH  21  40
BRANCH  14  42
HETATM   42  O   UNL     1       0.877   4.687  16.128  0.00  0.00    -0.384 OA
HETATM   43  C   UNL     1       1.394   5.802  15.503  0.00  0.00     0.202 C 
ENDBRANCH  14  42
BRANCH  15  44
HETATM   44  O   UNL     1       0.205   2.550  17.894  0.00  0.00    -0.291 OA
BRANCH  44  45
HETATM   45  C   UNL     1      -0.951   3.221  17.686  0.00  0.00     0.359 C 
HETATM   46  N   UNL     1      -1.047   4.316  18.470  0.00  0.00    -0.346 N 
HETATM   47  H   UNL     1      -0.284   4.716  18.988  0.00  0.00     0.161 HD
HETATM   48  H   UNL     1      -1.985   4.682  18.541  0.00  0.00     0.161 HD
HETATM   49  O   UNL     1      -1.918   2.868  17.029  0.00  0.00    -0.239 OA
ENDBRANCH  44  45
ENDBRANCH  15  44
TORSDOF 9
ENDMDL
MODEL 3
REMARK VINA RESULT:    -8.488      5.270      8.523
REMARK INTER + INTRA:          -9.796
REMARK INTER:                 -10.270
REMARK INTRA:                   0.474
REMARK UNBOUND:                 0.677
REMARK  9 active torsions:
REMARK  status: ('A' for Active; 'I' for Inactive)
REMARK    1  A    between atoms: N_2  and  C_4 
REMARK    2  A    between atoms: C_4  and  C_5 
REMARK    3  A    between atoms: C_5  and  N_6 
REMARK    4  A    between atoms: N_6  and  C_7 
REMARK    5  A    between atoms: C_20  and  O_21 
REMARK    6  A    between atoms: C_23  and  O_24 
REMARK    7  A    between atoms: O_24  and  C_25 
REMARK       I    between atoms: C_25  and  N_26 
REMARK    8  A    between atoms: C_33  and  O_34 
REMARK    9  A    between atoms: C_35  and  O_36 
ROOT
HETATM    1  C   UNL     1      -0.196   5.393  17.953  0.00  0.00     0.066 C 
HETATM    2  C   UNL     1       0.679   5.738  16.319  0.00  0.00     0.182 C 
HETATM    3  O   UNL     1       0.874   6.866  15.841  0.00  0.00    -0.290 OA
HETATM    4  C   UNL     1       1.512   4.869  15.520  0.00  0.00     0.133 C 
HETATM    5  C   UNL     1       0.692   3.914  15.860  0.00  0.00     0.076 C 
HETATM    6  N   UNL     1       0.263   3.338  14.738  0.00  0.00    -0.326 N 
HETATM    7  C   UNL     1      -0.216   2.164  15.044  0.00  0.00     0.232 C 
HETATM    8  O   UNL     1       0.346   1.333  15.729  0.00  0.00    -0.272 OA
HETATM    9  C   UNL     1      -1.631   2.379  14.852  0.00  0.00     0.062 C 
HETATM   10  C   UNL     1      -1.805   1.900  13.481  0.00  0.00     0.027 C 
HETATM   11  C   UNL     1      -2.123   2.161  16.066  0.00  0.00     0.035 C 
HETATM   12  C   UNL     1      -2.554   0.855  16.335  0.00  0.00    -0.021 C 
HETATM   13  C   UNL     1      -3.601   0.836  17.128  0.00  0.00     0.004 C 
HETATM   14  C   UNL     1      -4.650  -0.145  16.849  0.00  0.00     0.177 C 
HETATM   15  C   UNL     1      -5.632  -0.032  17.926  0.00  0.00     0.194 C 
HETATM   16  C   UNL     1      -6.751  -1.009  17.901  0.00  0.00    -0.055 C 
HETATM   17  C   UNL     1      -6.642  -2.175  16.973  0.00  0.00     0.046 C 
HETATM   18  C   UNL     1      -7.836  -0.795  18.665  0.00  0.00    -0.015 C 
HETATM   19  C   UNL     1      -8.668  -1.939  19.072  0.00  0.00     0.035 C 
HETATM   20  C   UNL     1      -9.893  -2.051  18.236  0.00  0.00     0.017 C 
HETATM   21  C   UNL     1      -8.529  -1.859  20.594  0.00  0.00     0.154 C 
HETATM   22  C   UNL     1      -6.682  -1.993  20.730  0.00  0.00     0.150 C 
HETATM   23  C   UNL     1      -5.101  -0.774  20.280  0.00  0.00     0.039 C 
HETATM   24  C   UNL     1      -3.887   0.959  20.163  0.00  0.00    -0.012 C 
HETATM   25  C   UNL     1      -5.024   1.139  21.681  0.00  0.00     0.010 C 
HETATM   26  C   UNL     1      -2.606   2.600  19.452  0.00  0.00     0.049 C 
HETATM   27  C   UNL     1      -1.047   3.812  18.469  0.00  0.00     0.019 C 
HETATM   28  C   UNL     1       0.290   3.446  17.495  0.00  0.00     0.203 C 
HETATM   29  O   UNL     1       1.342   3.291  18.142  0.00  0.00    -0.286 OA
HETATM   30  H   UNL     1       0.490   3.584  13.771  0.00  0.00     0.168 HD
ENDROOT
BRANCH   1  31
HETATM   31  N   UNL     1       1.048   6.814  18.357  0.00  0.00    -0.288 NA
HETATM   32  H   UNL     1       0.949   6.570  19.355  0.00  0.00     0.127 HD
BRANCH  31  33
HETATM   33  C   UNL     1       2.813   7.148  19.098  0.00  0.00     0.112 C 
BRANCH  33  34
HETATM   34  C   UNL     1       4.633   7.846  18.871  0.00  0.00     0.130 C 
BRANCH  34  35
HETATM   35  N   UNL     1       6.137   7.612  19.367  0.00  0.00    -0.420 N 
HETATM   36  C   UNL     1       7.055   8.747  19.387  0.00  0.00     0.142 C 
HETATM   37  C   UNL     1       6.406   6.759  20.534  0.00  0.00     0.142 C 
ENDBRANCH  34  35
ENDBRANCH  33  34
ENDBRANCH  31  33
ENDBRANCH   1  31
BRANCH  22  38
HETATM   38  O   UNL     1      -6.753  -3.609  21.325  0.00  0.00    -0.388 OA
HETATM   39  C   UNL     1      -5.979  -4.233  22.538  0.00  0.00     0.202 C 
ENDBRANCH  22  38
BRANCH  21  40
HETATM   40  O   UNL     1      -9.441  -0.924  21.196  0.00  0.00    -0.392 OA
HETATM   41  H   UNL     1      -9.516  -0.966  22.155  0.00  0.00     0.210 HD
ENDBRANCH  21  40
BRANCH  14  42
HETATM   42  O   UNL     1      -5.454   0.193  15.761  0.00  0.00    -0.384 OA
HETATM   43  C   UNL     1      -4.965  -0.368  14.601  0.00  0.00     0.202 C 
ENDBRANCH  14  42
BRANCH  15  44
HETATM   44  O   UNL     1      -6.037   1.306  18.322  0.00  0.00    -0.291 OA
BRANCH  44  45
HETATM   45  C   UNL     1      -6.645   2.043  17.364  0.00  0.00     0.359 C 
HETATM   46  N   UNL     1      -5.872   3.073  16.955  0.00  0.00    -0.346 N 
HETATM   47  H   UNL     1      -4.894   3.171  17.164  0.00  0.00     0.161 HD
HETATM   48  H   UNL     1      -6.380   3.786  16.453  0.00  0.00     0.161 HD
HETATM   49  O   UNL     1      -7.802   1.974  16.980  0.00  0.00    -0.239 OA
ENDBRANCH  44  45
ENDBRANCH  15  44
TORSDOF 9
ENDMDL
MODEL 4
REMARK VINA RESULT:    -8.348      1.788      2.152
REMARK INTER + INTRA:          -9.622
REMARK INTER:                 -10.228
REMARK INTRA:                   0.606
REMARK UNBOUND:                 0.677
REMARK  9 active torsions:
REMARK  status: ('A' for Active; 'I' for Inactive)
REMARK    1  A    between atoms: N_2  and  C_4 
REMARK    2  A    between atoms: C_4  and  C_5 
REMARK    3  A    between atoms: C_5  and  N_6 
REMARK    4  A    between atoms: N_6  and  C_7 
REMARK    5  A    between atoms: C_20  and  O_21 
REMARK    6  A    between atoms: C_23  and  O_24 
REMARK    7  A    between atoms: O_24  and  C_25 
REMARK       I    between atoms: C_25  and  N_26 
REMARK    8  A    between atoms: C_33  and  O_34 
REMARK    9  A    between atoms: C_35  and  O_36 
ROOT
HETATM    1  C   UNL     1       2.878   7.195  24.045  0.00  0.00     0.066 C 
HETATM    2  C   UNL     1       3.260   9.010  23.704  0.00  0.00     0.182 C 
HETATM    3  O   UNL     1       2.748   9.969  24.301  0.00  0.00    -0.290 OA
HETATM    4  C   UNL     1       4.361   9.597  22.974  0.00  0.00     0.133 C 
HETATM    5  C   UNL     1       4.248   8.585  22.160  0.00  0.00     0.076 C 
HETATM    6  N   UNL     1       4.114   9.075  20.929  0.00  0.00    -0.326 N 
HETATM    7  C   UNL     1       4.402   8.126  20.082  0.00  0.00     0.232 C 
HETATM    8  O   UNL     1       5.391   7.422  20.126  0.00  0.00    -0.272 OA
HETATM    9  C   UNL     1       3.098   7.830  19.539  0.00  0.00     0.062 C 
HETATM   10  C   UNL     1       3.098   8.664  18.337  0.00  0.00     0.027 C 
HETATM   11  C   UNL     1       2.922   6.560  19.884  0.00  0.00     0.035 C 
HETATM   12  C   UNL     1       3.320   5.601  18.943  0.00  0.00    -0.021 C 
HETATM   13  C   UNL     1       2.539   4.545  18.955  0.00  0.00     0.004 C 
HETATM   14  C   UNL     1       2.196   3.935  17.671  0.00  0.00     0.177 C 
HETATM   15  C   UNL     1       1.419   2.732  17.968  0.00  0.00     0.194 C 
HETATM   16  C   UNL     1       1.039   1.890  16.804  0.00  0.00    -0.055 C 
HETATM   17  C   UNL     1       1.697   2.172  15.491  0.00  0.00     0.046 C 
HETATM   18  C   UNL     1       0.094   0.946  16.948  0.00  0.00    -0.015 C 
HETATM   19  C   UNL     1       0.083  -0.208  16.035  0.00  0.00     0.035 C 
HETATM   20  C   UNL     1      -0.940  -0.053  14.967  0.00  0.00     0.017 C 
HETATM   21  C   UNL     1       0.289  -1.353  17.029  0.00  0.00     0.154 C 
HETATM   22  C   UNL     1       1.899  -0.809  17.776  0.00  0.00     0.150 C 
HETATM   23  C   UNL     1       2.483   0.702  19.027  0.00  0.00     0.039 C 
HETATM   24  C   UNL     1       2.507   2.028  20.680  0.00  0.00    -0.012 C 
HETATM   25  C   UNL     1       1.605   0.437  21.214  0.00  0.00     0.010 C 
HETATM   26  C   UNL     1       2.583   3.821  21.952  0.00  0.00     0.049 C 
HETATM   27  C   UNL     1       3.105   5.753  22.879  0.00  0.00     0.019 C 
HETATM   28  C   UNL     1       4.324   6.898  22.611  0.00  0.00     0.203 C 
HETATM   29  O   UNL     1       5.337   6.711  23.311  0.00  0.00    -0.286 OA
HETATM   30  H   UNL     1       4.077  10.055  20.637  0.00  0.00     0.168 HD
ENDROOT
BRANCH   1  31
HETATM   31  N   UNL     1       3.148   7.974  25.792  0.00  0.00    -0.288 NA
HETATM   32  H   UNL     1       2.667   8.821  25.450  0.00  0.00     0.127 HD
BRANCH  31  33
HETATM   33  C   UNL     1       2.186   8.626  27.349  0.00  0.00     0.112 C 
BRANCH  33  34
HETATM   34  C   UNL     1       0.887   8.306  28.785  0.00  0.00     0.130 C 
BRANCH  34  35
HETATM   35  N   UNL     1       0.799   8.035  30.360  0.00  0.00    -0.420 N 
HETATM   36  C   UNL     1       0.540   6.675  30.826  0.00  0.00     0.142 C 
HETATM   37  C   UNL     1       1.752   8.681  31.275  0.00  0.00     0.142 C 
ENDBRANCH  34  35
ENDBRANCH  33  34
ENDBRANCH  31  33
ENDBRANCH   1  31
BRANCH  22  38
HETATM   38  O   UNL     1       2.797  -2.031  16.954  0.00  0.00    -0.388 OA
HETATM   39  C   UNL     1       3.997  -1.852  15.960  0.00  0.00     0.202 C 
ENDBRANCH  22  38
BRANCH  21  40
HETATM   40  O   UNL     1      -0.931  -1.782  17.659  0.00  0.00    -0.392 OA
HETATM   41  H   UNL     1      -1.410  -2.488  17.213  0.00  0.00     0.210 HD
ENDBRANCH  21  40
BRANCH  14  42
HETATM   42  O   UNL     1       1.246   4.655  16.947  0.00  0.00    -0.384 OA
HETATM   43  C   UNL     1       1.853   5.623  16.175  0.00  0.00     0.202 C 
ENDBRANCH  14  42
BRANCH  15  44
HETATM   44  O   UNL     1       0.374   2.843  18.970  0.00  0.00    -0.291 OA
BRANCH  44  45
HETATM   45  C   UNL     1      -0.663   3.650  18.650  0.00  0.00     0.359 C 
HETATM   46  N   UNL     1      -0.607   4.828  19.308  0.00  0.00    -0.346 N 
HETATM   47  H   UNL     1       0.198   5.166  19.807  0.00  0.00     0.161 HD
HETATM   48  H   UNL     1      -1.479   5.336  19.307  0.00  0.00     0.161 HD
HETATM   49  O   UNL     1      -1.660   3.374  18.001  0.00  0.00    -0.239 OA
ENDBRANCH  44  45
ENDBRANCH  15  44
TORSDOF 9
ENDMDL
MODEL 5
REMARK VINA RESULT:    -8.104      3.254     10.780
REMARK INTER + INTRA:          -9.322
REMARK INTER:                 -11.112
REMARK INTRA:                   1.790
REMARK UNBOUND:                 0.677
REMARK  9 active torsions:
REMARK  status: ('A' for Active; 'I' for Inactive)
REMARK    1  A    between atoms: N_2  and  C_4 
REMARK    2  A    between atoms: C_4  and  C_5 
REMARK    3  A    between atoms: C_5  and  N_6 
REMARK    4  A    between atoms: N_6  and  C_7 
REMARK    5  A    between atoms: C_20  and  O_21 
REMARK    6  A    between atoms: C_23  and  O_24 
REMARK    7  A    between atoms: O_24  and  C_25 
REMARK       I    between atoms: C_25  and  N_26 
REMARK    8  A    between atoms: C_33  and  O_34 
REMARK    9  A    between atoms: C_35  and  O_36 
ROOT
HETATM    1  C   UNL     1      -2.313   2.370  14.397  0.00  0.00     0.066 C 
HETATM    2  C   UNL     1      -2.490   0.503  14.196  0.00  0.00     0.182 C 
HETATM    3  O   UNL     1      -3.561  -0.119  14.257  0.00  0.00    -0.290 OA
HETATM    4  C   UNL     1      -1.555  -0.457  13.656  0.00  0.00     0.133 C 
HETATM    5  C   UNL     1      -0.627   0.250  14.238  0.00  0.00     0.076 C 
HETATM    6  N   UNL     1       0.081  -0.574  15.008  0.00  0.00    -0.326 N 
HETATM    7  C   UNL     1       1.223  -0.002  15.270  0.00  0.00     0.232 C 
HETATM    8  O   UNL     1       1.959   0.506  14.449  0.00  0.00    -0.272 OA
HETATM    9  C   UNL     1       1.062   0.318  16.669  0.00  0.00     0.062 C 
HETATM   10  C   UNL     1       1.695  -0.841  17.298  0.00  0.00     0.027 C 
HETATM   11  C   UNL     1       1.152   1.642  16.675  0.00  0.00     0.035 C 
HETATM   12  C   UNL     1       2.429   2.176  16.898  0.00  0.00    -0.021 C 
HETATM   13  C   UNL     1       2.381   3.294  17.584  0.00  0.00     0.004 C 
HETATM   14  C   UNL     1       3.410   3.516  18.601  0.00  0.00     0.177 C 
HETATM   15  C   UNL     1       3.198   4.861  19.132  0.00  0.00     0.194 C 
HETATM   16  C   UNL     1       4.195   5.342  20.122  0.00  0.00    -0.055 C 
HETATM   17  C   UNL     1       5.456   4.556  20.285  0.00  0.00     0.046 C 
HETATM   18  C   UNL     1       3.920   6.426  20.869  0.00  0.00    -0.015 C 
HETATM   19  C   UNL     1       5.029   7.218  21.425  0.00  0.00     0.035 C 
HETATM   20  C   UNL     1       5.261   6.904  22.860  0.00  0.00     0.017 C 
HETATM   21  C   UNL     1       4.775   8.568  20.750  0.00  0.00     0.154 C 
HETATM   22  C   UNL     1       4.852   8.030  18.975  0.00  0.00     0.150 C 
HETATM   23  C   UNL     1       3.658   6.917  17.741  0.00  0.00     0.039 C 
HETATM   24  C   UNL     1       1.923   6.197  16.760  0.00  0.00    -0.012 C 
HETATM   25  C   UNL     1       1.599   8.000  17.280  0.00  0.00     0.010 C 
HETATM   26  C   UNL     1       0.345   4.910  15.927  0.00  0.00     0.049 C 
HETATM   27  C   UNL     1      -0.781   3.312  14.906  0.00  0.00     0.019 C 
HETATM   28  C   UNL     1      -0.337   1.957  13.992  0.00  0.00     0.203 C 
HETATM   29  O   UNL     1      -0.280   2.185  12.769  0.00  0.00    -0.286 OA
HETATM   30  H   UNL     1      -0.060  -1.577  15.161  0.00  0.00     0.168 HD
ENDROOT
BRANCH   1  31
HETATM   31  N   UNL     1      -3.797   2.150  13.181  0.00  0.00    -0.288 NA
HETATM   32  H   UNL     1      -4.001   1.253  13.648  0.00  0.00     0.127 HD
BRANCH  31  33
HETATM   33  C   UNL     1      -5.735   2.026  13.128  0.00  0.00     0.112 C 
BRANCH  33  34
HETATM   34  C   UNL     1      -7.401   1.319  13.887  0.00  0.00     0.130 C 
BRANCH  34  35
HETATM   35  N   UNL     1      -8.080   0.941  15.286  0.00  0.00    -0.420 N 
HETATM   36  C   UNL     1      -8.226  -0.469  15.638  0.00  0.00     0.142 C 
HETATM   37  C   UNL     1      -7.750   1.705  16.498  0.00  0.00     0.142 C 
ENDBRANCH  34  35
ENDBRANCH  33  34
ENDBRANCH  31  33
ENDBRANCH   1  31
BRANCH  22  38
HETATM   38  O   UNL     1       6.392   8.764  18.726  0.00  0.00    -0.388 OA
HETATM   39  C   UNL     1       7.631   8.773  19.687  0.00  0.00     0.202 C 
ENDBRANCH  22  38
BRANCH  21  40
HETATM   40  O   UNL     1       3.798   9.368  21.438  0.00  0.00    -0.392 OA
HETATM   41  H   UNL     1       3.475   9.014  22.274  0.00  0.00     0.210 HD
ENDBRANCH  21  40
BRANCH  14  42
HETATM   42  O   UNL     1       3.214   2.770  19.763  0.00  0.00    -0.384 OA
HETATM   43  C   UNL     1       3.972   1.619  19.737  0.00  0.00     0.202 C 
ENDBRANCH  14  42
BRANCH  15  44
HETATM   44  O   UNL     1       1.833   5.246  19.448  0.00  0.00    -0.291 OA
BRANCH  44  45
HETATM   45  C   UNL     1       1.142   4.378  20.221  0.00  0.00     0.359 C 
HETATM   46  N   UNL     1       1.633   4.321  21.478  0.00  0.00    -0.346 N 
HETATM   47  H   UNL     1       2.284   4.981  21.868  0.00  0.00     0.161 HD
HETATM   48  H   UNL     1       1.329   3.509  21.996  0.00  0.00     0.161 HD
HETATM   49  O   UNL     1       0.288   3.576  19.876  0.00  0.00    -0.239 OA
ENDBRANCH  44  45
ENDBRANCH  15  44
TORSDOF 9
ENDMDL
MODEL 6
REMARK VINA RESULT:    -7.725      3.711      6.364
REMARK INTER + INTRA:          -8.854
REMARK INTER:                  -9.329
REMARK INTRA:                   0.475
REMARK UNBOUND:                 0.677
REMARK  9 active torsions:
REMARK  status: ('A' for Active; 'I' for Inactive)
REMARK    1  A    between atoms: N_2  and  C_4 
REMARK    2  A    between atoms: C_4  and  C_5 
REMARK    3  A    between atoms: C_5  and  N_6 
REMARK    4  A    between atoms: N_6  and  C_7 
REMARK    5  A    between atoms: C_20  and  O_21 
REMARK    6  A    between atoms: C_23  and  O_24 
REMARK    7  A    between atoms: O_24  and  C_25 
REMARK       I    between atoms: C_25  and  N_26 
REMARK    8  A    between atoms: C_33  and  O_34 
REMARK    9  A    between atoms: C_35  and  O_36 
ROOT
HETATM    1  C   UNL     1       1.980   5.847  18.734  0.00  0.00     0.066 C 
HETATM    2  C   UNL     1       3.771   5.641  18.181  0.00  0.00     0.182 C 
HETATM    3  O   UNL     1       4.456   6.527  17.649  0.00  0.00    -0.290 OA
HETATM    4  C   UNL     1       4.727   4.614  18.523  0.00  0.00     0.133 C 
HETATM    5  C   UNL     1       3.723   3.784  18.476  0.00  0.00     0.076 C 
HETATM    6  N   UNL     1       4.054   2.802  17.639  0.00  0.00    -0.326 N 
HETATM    7  C   UNL     1       3.272   1.786  17.878  0.00  0.00     0.232 C 
HETATM    8  O   UNL     1       3.046   1.316  18.975  0.00  0.00    -0.272 OA
HETATM    9  C   UNL     1       2.434   1.795  16.702  0.00  0.00     0.062 C 
HETATM   10  C   UNL     1       3.134   0.833  15.850  0.00  0.00     0.027 C 
HETATM   11  C   UNL     1       1.224   1.996  17.210  0.00  0.00     0.035 C 
HETATM   12  C   UNL     1       0.474   0.849  17.500  0.00  0.00    -0.021 C 
HETATM   13  C   UNL     1      -0.809   1.033  17.288  0.00  0.00     0.004 C 
HETATM   14  C   UNL     1      -1.567  -0.068  16.693  0.00  0.00     0.177 C 
HETATM   15  C   UNL     1      -2.968   0.349  16.667  0.00  0.00     0.194 C 
HETATM   16  C   UNL     1      -3.945  -0.661  16.184  0.00  0.00    -0.055 C 
HETATM   17  C   UNL     1      -3.478  -2.072  16.034  0.00  0.00     0.046 C 
HETATM   18  C   UNL     1      -5.190  -0.274  15.853  0.00  0.00    -0.015 C 
HETATM   19  C   UNL     1      -6.285  -1.256  15.901  0.00  0.00     0.035 C 
HETATM   20  C   UNL     1      -6.621  -1.770  14.547  0.00  0.00     0.017 C 
HETATM   21  C   UNL     1      -7.192  -0.611  16.952  0.00  0.00     0.154 C 
HETATM   22  C   UNL     1      -5.993  -0.527  18.367  0.00  0.00     0.150 C 
HETATM   23  C   UNL     1      -4.319   0.571  18.788  0.00  0.00     0.039 C 
HETATM   24  C   UNL     1      -3.026   2.237  19.005  0.00  0.00    -0.012 C 
HETATM   25  C   UNL     1      -4.821   2.863  19.133  0.00  0.00     0.010 C 
HETATM   26  C   UNL     1      -1.306   3.605  18.913  0.00  0.00     0.049 C 
HETATM   27  C   UNL     1       0.710   4.499  18.979  0.00  0.00     0.019 C 
HETATM   28  C   UNL     1       2.244   3.917  19.399  0.00  0.00     0.203 C 
HETATM   29  O   UNL     1       2.529   4.101  20.596  0.00  0.00    -0.286 OA
HETATM   30  H   UNL     1       4.915   2.695  17.096  0.00  0.00     0.168 HD
ENDROOT
BRANCH   1  31
HETATM   31  N   UNL     1       2.881   7.418  19.406  0.00  0.00    -0.288 NA
HETATM   32  H   UNL     1       2.196   7.438  20.178  0.00  0.00     0.127 HD
BRANCH  31  33
HETATM   33  C   UNL     1       3.904   8.072  20.923  0.00  0.00     0.112 C 
BRANCH  33  34
HETATM   34  C   UNL     1       4.009   8.465  22.843  0.00  0.00     0.130 C 
BRANCH  34  35
HETATM   35  N   UNL     1       3.698   9.621  23.905  0.00  0.00    -0.420 N 
HETATM   36  C   UNL     1       3.874  11.013  23.501  0.00  0.00     0.142 C 
HETATM   37  C   UNL     1       2.521   9.522  24.781  0.00  0.00     0.142 C 
ENDBRANCH  34  35
ENDBRANCH  33  34
ENDBRANCH  31  33
ENDBRANCH   1  31
BRANCH  22  38
HETATM   38  O   UNL     1      -6.767  -1.812  19.217  0.00  0.00    -0.388 OA
HETATM   39  C   UNL     1      -7.356  -1.800  20.670  0.00  0.00     0.202 C 
ENDBRANCH  22  38
BRANCH  21  40
HETATM   40  O   UNL     1      -8.059   0.399  16.407  0.00  0.00    -0.392 OA
HETATM   41  H   UNL     1      -7.623   1.172  16.032  0.00  0.00     0.210 HD
ENDBRANCH  21  40
BRANCH  14  42
HETATM   42  O   UNL     1      -1.342  -0.223  15.325  0.00  0.00    -0.384 OA
HETATM   43  C   UNL     1      -0.288  -1.081  15.098  0.00  0.00     0.202 C 
ENDBRANCH  14  42
BRANCH  15  44
HETATM   44  O   UNL     1      -3.255   1.699  16.213  0.00  0.00    -0.291 OA
BRANCH  44  45
HETATM   45  C   UNL     1      -2.950   1.961  14.921  0.00  0.00     0.359 C 
HETATM   46  N   UNL     1      -1.939   2.850  14.813  0.00  0.00    -0.346 N 
HETATM   47  H   UNL     1      -1.338   3.128  15.570  0.00  0.00     0.161 HD
HETATM   48  H   UNL     1      -1.863   3.269  13.897  0.00  0.00     0.161 HD
HETATM   49  O   UNL     1      -3.562   1.627  13.919  0.00  0.00    -0.239 OA
ENDBRANCH  44  45
ENDBRANCH  15  44
TORSDOF 9
ENDMDL
MODEL 7
REMARK VINA RESULT:    -7.666      2.366      3.240
REMARK INTER + INTRA:          -8.782
REMARK INTER:                  -9.566
REMARK INTRA:                   0.785
REMARK UNBOUND:                 0.677
REMARK  9 active torsions:
REMARK  status: ('A' for Active; 'I' for Inactive)
REMARK    1  A    between atoms: N_2  and  C_4 
REMARK    2  A    between atoms: C_4  and  C_5 
REMARK    3  A    between atoms: C_5  and  N_6 
REMARK    4  A    between atoms: N_6  and  C_7 
REMARK    5  A    between atoms: C_20  and  O_21 
REMARK    6  A    between atoms: C_23  and  O_24 
REMARK    7  A    between atoms: O_24  and  C_25 
REMARK       I    between atoms: C_25  and  N_26 
REMARK    8  A    between atoms: C_33  and  O_34 
REMARK    9  A    between atoms: C_35  and  O_36 
ROOT
HETATM    1  C   UNL     1       2.774   7.549  24.605  0.00  0.00     0.066 C 
HETATM    2  C   UNL     1       3.006   9.342  24.072  0.00  0.00     0.182 C 
HETATM    3  O   UNL     1       2.341  10.301  24.493  0.00  0.00    -0.290 OA
HETATM    4  C   UNL     1       4.113   9.960  23.379  0.00  0.00     0.133 C 
HETATM    5  C   UNL     1       4.189   8.854  22.694  0.00  0.00     0.076 C 
HETATM    6  N   UNL     1       4.138   9.179  21.403  0.00  0.00    -0.326 N 
HETATM    7  C   UNL     1       4.607   8.176  20.714  0.00  0.00     0.232 C 
HETATM    8  O   UNL     1       5.651   7.597  20.938  0.00  0.00    -0.272 OA
HETATM    9  C   UNL     1       3.403   7.673  20.094  0.00  0.00     0.062 C 
HETATM   10  C   UNL     1       3.446   8.356  18.801  0.00  0.00     0.027 C 
HETATM   11  C   UNL     1       3.320   6.441  20.580  0.00  0.00     0.035 C 
HETATM   12  C   UNL     1       3.909   5.429  19.810  0.00  0.00    -0.021 C 
HETATM   13  C   UNL     1       3.240   4.301  19.884  0.00  0.00     0.004 C 
HETATM   14  C   UNL     1       3.098   3.511  18.662  0.00  0.00     0.177 C 
HETATM   15  C   UNL     1       2.418   2.271  19.037  0.00  0.00     0.194 C 
HETATM   16  C   UNL     1       2.249   1.262  17.959  0.00  0.00    -0.055 C 
HETATM   17  C   UNL     1       3.010   1.461  16.688  0.00  0.00     0.046 C 
HETATM   18  C   UNL     1       1.393   0.241  18.135  0.00  0.00    -0.015 C 
HETATM   19  C   UNL     1       1.594  -1.006  17.378  0.00  0.00     0.035 C 
HETATM   20  C   UNL     1       0.679  -1.092  16.210  0.00  0.00     0.017 C 
HETATM   21  C   UNL     1       1.808  -1.996  18.525  0.00  0.00     0.154 C 
HETATM   22  C   UNL     1       3.268  -1.192  19.343  0.00  0.00     0.150 C 
HETATM   23  C   UNL     1       3.562   0.511  20.439  0.00  0.00     0.039 C 
HETATM   24  C   UNL     1       3.279   2.015  21.905  0.00  0.00    -0.012 C 
HETATM   25  C   UNL     1       2.490   0.406  22.552  0.00  0.00     0.010 C 
HETATM   26  C   UNL     1       3.041   3.942  22.940  0.00  0.00     0.049 C 
HETATM   27  C   UNL     1       3.266   6.015  23.658  0.00  0.00     0.019 C 
HETATM   28  C   UNL     1       4.386   7.250  23.360  0.00  0.00     0.203 C 
HETATM   29  O   UNL     1       5.332   7.261  24.169  0.00  0.00    -0.286 OA
HETATM   30  H   UNL     1       4.034  10.108  20.986  0.00  0.00     0.168 HD
ENDROOT
BRANCH   1  31
HETATM   31  N   UNL     1       2.778   8.551  26.256  0.00  0.00    -0.288 NA
HETATM   32  H   UNL     1       1.753   8.631  26.170  0.00  0.00     0.127 HD
BRANCH  31  33
HETATM   33  C   UNL     1       2.148   8.490  28.093  0.00  0.00     0.112 C 
BRANCH  33  34
HETATM   34  C   UNL     1       1.619   7.434  29.660  0.00  0.00     0.130 C 
BRANCH  34  35
HETATM   35  N   UNL     1       1.366   7.567  31.235  0.00  0.00    -0.420 N 
HETATM   36  C   UNL     1       1.631   8.848  31.883  0.00  0.00     0.142 C 
HETATM   37  C   UNL     1       0.176   6.958  31.847  0.00  0.00     0.142 C 
ENDBRANCH  34  35
ENDBRANCH  33  34
ENDBRANCH  31  33
ENDBRANCH   1  31
BRANCH  22  38
HETATM   38  O   UNL     1       4.365  -2.392  18.769  0.00  0.00    -0.388 OA
HETATM   39  C   UNL     1       5.465  -2.253  17.661  0.00  0.00     0.202 C 
ENDBRANCH  22  38
BRANCH  21  40
HETATM   40  O   UNL     1       0.578  -2.483  19.089  0.00  0.00    -0.392 OA
HETATM   41  H   UNL     1       0.186  -3.246  18.651  0.00  0.00     0.210 HD
ENDBRANCH  21  40
BRANCH  14  42
HETATM   42  O   UNL     1       2.162   4.030  17.768  0.00  0.00    -0.384 OA
HETATM   43  C   UNL     1       2.680   5.118  17.098  0.00  0.00     0.202 C 
ENDBRANCH  14  42
BRANCH  15  44
HETATM   44  O   UNL     1       1.267   2.381  19.916  0.00  0.00    -0.291 OA
BRANCH  44  45
HETATM   45  C   UNL     1       0.153   2.911  19.362  0.00  0.00     0.359 C 
HETATM   46  N   UNL     1       0.040   4.231  19.622  0.00  0.00    -0.346 N 
HETATM   47  H   UNL     1       0.778   4.806  19.990  0.00  0.00     0.161 HD
HETATM   48  H   UNL     1      -0.887   4.598  19.463  0.00  0.00     0.161 HD
HETATM   49  O   UNL     1      -0.777   2.324  18.831  0.00  0.00    -0.239 OA
ENDBRANCH  44  45
ENDBRANCH  15  44
TORSDOF 9
ENDMDL
MODEL 8
REMARK VINA RESULT:    -7.469      5.659     13.473
REMARK INTER + INTRA:          -8.538
REMARK INTER:                  -9.215
REMARK INTRA:                   0.677
REMARK UNBOUND:                 0.677
REMARK  9 active torsions:
REMARK  status: ('A' for Active; 'I' for Inactive)
REMARK    1  A    between atoms: N_2  and  C_4 
REMARK    2  A    between atoms: C_4  and  C_5 
REMARK    3  A    between atoms: C_5  and  N_6 
REMARK    4  A    between atoms: N_6  and  C_7 
REMARK    5  A    between atoms: C_20  and  O_21 
REMARK    6  A    between atoms: C_23  and  O_24 
REMARK    7  A    between atoms: O_24  and  C_25 
REMARK       I    between atoms: C_25  and  N_26 
REMARK    8  A    between atoms: C_33  and  O_34 
REMARK    9  A    between atoms: C_35  and  O_36 
ROOT
HETATM    1  C   UNL     1       3.397   8.377  24.757  0.00  0.00     0.066 C 
HETATM    2  C   UNL     1       2.092   9.739  24.781  0.00  0.00     0.182 C 
HETATM    3  O   UNL     1       2.261  10.892  24.355  0.00  0.00    -0.290 OA
HETATM    4  C   UNL     1       0.665   9.642  24.979  0.00  0.00     0.133 C 
HETATM    5  C   UNL     1       0.936   8.711  25.850  0.00  0.00     0.076 C 
HETATM    6  N   UNL     1       0.344   9.048  26.994  0.00  0.00    -0.326 N 
HETATM    7  C   UNL     1       0.255   7.978  27.735  0.00  0.00     0.232 C 
HETATM    8  O   UNL     1      -0.174   6.903  27.367  0.00  0.00    -0.272 OA
HETATM    9  C   UNL     1       1.228   8.267  28.763  0.00  0.00     0.062 C 
HETATM   10  C   UNL     1       0.375   8.845  29.801  0.00  0.00     0.027 C 
HETATM   11  C   UNL     1       2.107   7.284  28.613  0.00  0.00     0.035 C 
HETATM   12  C   UNL     1       1.901   6.142  29.398  0.00  0.00    -0.021 C 
HETATM   13  C   UNL     1       3.032   5.590  29.772  0.00  0.00     0.004 C 
HETATM   14  C   UNL     1       3.116   5.059  31.132  0.00  0.00     0.177 C 
HETATM   15  C   UNL     1       4.422   4.412  31.255  0.00  0.00     0.194 C 
HETATM   16  C   UNL     1       4.691   3.712  32.537  0.00  0.00    -0.055 C 
HETATM   17  C   UNL     1       3.542   3.484  33.465  0.00  0.00     0.046 C 
HETATM   18  C   UNL     1       5.949   3.351  32.844  0.00  0.00    -0.015 C 
HETATM   19  C   UNL     1       6.170   2.235  33.778  0.00  0.00     0.035 C 
HETATM   20  C   UNL     1       6.506   2.720  35.142  0.00  0.00     0.017 C 
HETATM   21  C   UNL     1       6.931   1.261  32.874  0.00  0.00     0.154 C 
HETATM   22  C   UNL     1       5.673   1.070  31.521  0.00  0.00     0.150 C 
HETATM   23  C   UNL     1       4.953   2.270  30.028  0.00  0.00     0.039 C 
HETATM   24  C   UNL     1       4.915   3.622  28.397  0.00  0.00    -0.012 C 
HETATM   25  C   UNL     1       6.596   2.725  28.380  0.00  0.00     0.010 C 
HETATM   26  C   UNL     1       4.469   5.310  27.059  0.00  0.00     0.049 C 
HETATM   27  C   UNL     1       3.474   6.866  25.853  0.00  0.00     0.019 C 
HETATM   28  C   UNL     1       1.856   7.257  25.538  0.00  0.00     0.203 C 
HETATM   29  O   UNL     1       1.406   6.704  24.517  0.00  0.00    -0.286 OA
HETATM   30  H   UNL     1      -0.208   9.885  27.200  0.00  0.00     0.168 HD
ENDROOT
BRANCH   1  31
HETATM   31  N   UNL     1       3.464   9.147  22.987  0.00  0.00    -0.288 NA
HETATM   32  H   UNL     1       4.482   9.260  23.113  0.00  0.00     0.127 HD
BRANCH  31  33
HETATM   33  C   UNL     1       4.190   8.853  21.210  0.00  0.00     0.112 C 
BRANCH  33  34
HETATM   34  C   UNL     1       3.901   8.383  19.326  0.00  0.00     0.130 C 
BRANCH  34  35
HETATM   35  N   UNL     1       2.841   7.673  18.359  0.00  0.00    -0.420 N 
HETATM   36  C   UNL     1       1.879   8.504  17.642  0.00  0.00     0.142 C 
HETATM   37  C   UNL     1       3.262   6.566  17.488  0.00  0.00     0.142 C 
ENDBRANCH  34  35
ENDBRANCH  33  34
ENDBRANCH  31  33
ENDBRANCH   1  31
BRANCH  22  38
HETATM   38  O   UNL     1       5.242  -0.522  32.024  0.00  0.00    -0.388 OA
HETATM   39  C   UNL     1       3.925  -0.994  32.732  0.00  0.00     0.202 C 
ENDBRANCH  22  38
BRANCH  21  40
HETATM   40  O   UNL     1       8.340   1.541  32.801  0.00  0.00    -0.392 OA
HETATM   41  H   UNL     1       8.793   1.644  33.645  0.00  0.00     0.210 HD
ENDBRANCH  21  40
BRANCH  14  42
HETATM   42  O   UNL     1       3.250   6.046  32.109  0.00  0.00    -0.384 OA
HETATM   43  C   UNL     1       2.014   6.465  32.552  0.00  0.00     0.202 C 
ENDBRANCH  14  42
BRANCH  15  44
HETATM   44  O   UNL     1       5.572   5.127  30.730  0.00  0.00    -0.291 OA
BRANCH  44  45
HETATM   45  C   UNL     1       5.988   6.187  31.459  0.00  0.00     0.359 C 
HETATM   46  N   UNL     1       5.524   7.354  30.963  0.00  0.00    -0.346 N 
HETATM   47  H   UNL     1       4.795   7.432  30.275  0.00  0.00     0.161 HD
HETATM   48  H   UNL     1       6.018   8.165  31.305  0.00  0.00     0.161 HD
HETATM   49  O   UNL     1       6.816   6.206  32.357  0.00  0.00    -0.239 OA
ENDBRANCH  44  45
ENDBRANCH  15  44
TORSDOF 9
ENDMDL
