MODEL 1
REMARK VINA RESULT:    -8.878      0.000      0.000
REMARK INTER + INTRA:         -14.960
REMARK INTER:                 -12.293
REMARK INTRA:                  -2.667
REMARK UNBOUND:                -2.969
REMARK  7 active torsions:
REMARK  status: ('A' for Active; 'I' for Inactive)
REMARK    1  A    between atoms: C_7  and  N_8 
REMARK    2  A    between atoms: C_14  and  C_15 
REMARK    3  A    between atoms: C_16  and  O_17 
REMARK    4  A    between atoms: C_19  and  O_20 
REMARK    5  A    between atoms: C_22  and  C_23 
REMARK       I    between atoms: C_23  and  N_25 
REMARK    6  A    between atoms: N_25  and  C_27 
REMARK    7  A    between atoms: C_27  and  C_28 
ROOT
HETATM    1  C   UNL     1      -2.761  13.986  22.241  0.00  0.00     0.046 A 
HETATM    2  C   UNL     1      -4.151  14.134  22.033  0.00  0.00     0.082 A 
HETATM    3  C   UNL     1      -4.671  15.236  21.368  0.00  0.00     0.075 A 
HETATM    4  C   UNL     1      -3.809  16.216  20.886  0.00  0.00     0.084 A 
HETATM    5  C   UNL     1      -1.900  15.015  21.796  0.00  0.00     0.038 A 
HETATM    6  C   UNL     1      -2.410  16.116  21.061  0.00  0.00     0.066 A 
ENDROOT
BRANCH   1   7
HETATM    7  C   UNL     1      -2.298  12.679  22.813  0.00  0.00     0.172 A 
HETATM    8  N   UNL     1      -1.362  12.467  23.798  0.00  0.00    -0.244 N 
HETATM    9  C   UNL     1      -1.284  11.087  23.924  0.00  0.00     0.349 A 
HETATM   10  O   UNL     1      -0.520  10.392  24.586  0.00  0.00    -0.245 OA
HETATM   11  N   UNL     1      -2.207  10.572  23.028  0.00  0.00    -0.226 N 
HETATM   12  H   UNL     1      -2.263   9.597  22.763  0.00  0.00     0.194 HD
HETATM   13  N   UNL     1      -2.810  11.568  22.337  0.00  0.00    -0.151 NA
BRANCH   8  14
HETATM   14  C   UNL     1      -0.361  13.279  24.384  0.00  0.00     0.051 A 
HETATM   15  C   UNL     1      -0.636  14.335  25.275  0.00  0.00    -0.035 A 
HETATM   16  C   UNL     1      -2.027  14.831  25.562  0.00  0.00     0.050 C 
HETATM   17  C   UNL     1       0.434  15.103  25.778  0.00  0.00     0.009 A 
HETATM   18  C   UNL     1       1.739  14.914  25.327  0.00  0.00     0.001 A 
HETATM   19  C   UNL     1       2.000  13.944  24.371  0.00  0.00     0.002 A 
HETATM   20  C   UNL     1       0.963  13.126  23.918  0.00  0.00     0.031 A 
ENDBRANCH   8  14
ENDBRANCH   1   7
BRANCH   2  21
HETATM   21  O   UNL     1      -5.092  13.209  22.412  0.00  0.00    -0.360 OA
HETATM   22  H   UNL     1      -5.754  13.126  21.690  0.00  0.00     0.217 HD
ENDBRANCH   2  21
BRANCH   6  23
HETATM   23  C   UNL     1      -1.534  16.909  20.133  0.00  0.00     0.256 C 
HETATM   24  O   UNL     1      -2.088  17.303  19.100  0.00  0.00    -0.267 OA
HETATM   25  N   UNL     1      -0.162  17.123  20.317  0.00  0.00    -0.348 N 
HETATM   26  C   UNL     1       0.565  17.704  19.188  0.00  0.00     0.153 C 
BRANCH  25  27
HETATM   27  C   UNL     1       0.641  16.824  21.502  0.00  0.00     0.164 C 
BRANCH  27  28
HETATM   28  C   UNL     1       1.883  15.975  21.303  0.00  0.00    -0.040 A 
HETATM   29  C   UNL     1       1.748  14.706  20.706  0.00  0.00     0.009 A 
HETATM   30  C   UNL     1       2.806  13.795  20.701  0.00  0.00     0.001 A 
HETATM   31  C   UNL     1       4.016  14.132  21.299  0.00  0.00     0.007 A 
HETATM   32  C   UNL     1       4.190  15.398  21.872  0.00  0.00    -0.061 A 
HETATM   33  C   UNL     1       3.125  16.318  21.862  0.00  0.00     0.015 A 
HETATM   34  C   UNL     1       5.465  15.709  22.602  0.00  0.00     0.048 C 
ENDBRANCH  27  28
ENDBRANCH  25  27
ENDBRANCH   6  23
BRANCH   4  35
HETATM   35  O   UNL     1      -4.369  17.254  20.190  0.00  0.00    -0.360 OA
HETATM   36  H   UNL     1      -4.656  16.938  19.312  0.00  0.00     0.217 HD
ENDBRANCH   4  35
TORSDOF 7
ENDMDL
MODEL 2
REMARK VINA RESULT:    -8.730      2.831      6.771
REMARK INTER + INTRA:         -14.760
REMARK INTER:                 -12.211
REMARK INTRA:                  -2.549
REMARK UNBOUND:                -2.969
REMARK  7 active torsions:
REMARK  status: ('A' for Active; 'I' for Inactive)
REMARK    1  A    between atoms: C_7  and  N_8 
REMARK    2  A    between atoms: C_14  and  C_15 
REMARK    3  A    between atoms: C_16  and  O_17 
REMARK    4  A    between atoms: C_19  and  O_20 
REMARK    5  A    between atoms: C_22  and  C_23 
REMARK       I    between atoms: C_23  and  N_25 
REMARK    6  A    between atoms: N_25  and  C_27 
REMARK    7  A    between atoms: C_27  and  C_28 
ROOT
HETATM    1  C   UNL     1      -0.582  14.461  24.647  0.00  0.00     0.046 A 
HETATM    2  C   UNL     1      -0.155  15.091  25.839  0.00  0.00     0.082 A 
HETATM    3  C   UNL     1      -0.923  15.054  26.993  0.00  0.00     0.075 A 
HETATM    4  C   UNL     1      -2.139  14.377  26.987  0.00  0.00     0.084 A 
HETATM    5  C   UNL     1      -1.844  13.825  24.638  0.00  0.00     0.038 A 
HETATM    6  C   UNL     1      -2.612  13.725  25.826  0.00  0.00     0.066 A 
ENDROOT
BRANCH   1   7
HETATM    7  C   UNL     1       0.402  14.414  23.517  0.00  0.00     0.172 A 
HETATM    8  N   UNL     1       0.264  14.928  22.249  0.00  0.00    -0.244 N 
HETATM    9  C   UNL     1       1.439  14.582  21.594  0.00  0.00     0.349 A 
HETATM   10  O   UNL     1       1.760  14.711  20.417  0.00  0.00    -0.245 OA
HETATM   11  N   UNL     1       2.213  13.917  22.532  0.00  0.00    -0.226 N 
HETATM   12  H   UNL     1       3.049  13.392  22.312  0.00  0.00     0.194 HD
HETATM   13  N   UNL     1       1.550  13.805  23.707  0.00  0.00    -0.151 NA
BRANCH   8  14
HETATM   14  C   UNL     1      -0.845  15.385  21.496  0.00  0.00     0.051 A 
HETATM   15  C   UNL     1      -1.856  14.537  21.004  0.00  0.00    -0.035 A 
HETATM   16  C   UNL     1      -1.778  13.035  21.069  0.00  0.00     0.050 C 
HETATM   17  C   UNL     1      -2.902  15.091  20.238  0.00  0.00     0.009 A 
HETATM   18  C   UNL     1      -2.895  16.433  19.863  0.00  0.00     0.001 A 
HETATM   19  C   UNL     1      -1.846  17.249  20.257  0.00  0.00     0.002 A 
HETATM   20  C   UNL     1      -0.842  16.734  21.078  0.00  0.00     0.031 A 
ENDBRANCH   8  14
ENDBRANCH   1   7
BRANCH   2  21
HETATM   21  O   UNL     1       1.048  15.738  25.983  0.00  0.00    -0.360 OA
HETATM   22  H   UNL     1       1.770  15.089  25.833  0.00  0.00     0.217 HD
ENDBRANCH   2  21
BRANCH   6  23
HETATM   23  C   UNL     1      -3.639  12.644  26.004  0.00  0.00     0.256 C 
HETATM   24  O   UNL     1      -4.764  12.913  25.566  0.00  0.00    -0.267 OA
HETATM   25  N   UNL     1      -3.428  11.449  26.704  0.00  0.00    -0.348 N 
HETATM   26  C   UNL     1      -4.614  10.638  26.981  0.00  0.00     0.153 C 
BRANCH  25  27
HETATM   27  C   UNL     1      -2.163  10.915  27.205  0.00  0.00     0.164 C 
BRANCH  27  28
HETATM   28  C   UNL     1      -1.322  10.100  26.240  0.00  0.00    -0.040 A 
HETATM   29  C   UNL     1      -0.655   8.956  26.722  0.00  0.00     0.009 A 
HETATM   30  C   UNL     1       0.303   8.300  25.948  0.00  0.00     0.001 A 
HETATM   31  C   UNL     1       0.620   8.779  24.680  0.00  0.00     0.007 A 
HETATM   32  C   UNL     1      -0.049   9.895  24.162  0.00  0.00    -0.061 A 
HETATM   33  C   UNL     1      -1.025  10.544  24.941  0.00  0.00     0.015 A 
HETATM   34  C   UNL     1       0.374  10.459  22.837  0.00  0.00     0.048 C 
ENDBRANCH  27  28
ENDBRANCH  25  27
ENDBRANCH   6  23
BRANCH   4  35
HETATM   35  O   UNL     1      -2.832  14.325  28.168  0.00  0.00    -0.360 OA
HETATM   36  H   UNL     1      -2.521  13.563  28.692  0.00  0.00     0.217 HD
ENDBRANCH   4  35
TORSDOF 7
ENDMDL
MODEL 3
REMARK VINA RESULT:    -8.669      1.242      1.861
REMARK INTER + INTRA:         -14.678
REMARK INTER:                 -13.123
REMARK INTRA:                  -1.556
REMARK UNBOUND:                -2.969
REMARK  7 active torsions:
REMARK  status: ('A' for Active; 'I' for Inactive)
REMARK    1  A    between atoms: C_7  and  N_8 
REMARK    2  A    between atoms: C_14  and  C_15 
REMARK    3  A    between atoms: C_16  and  O_17 
REMARK    4  A    between atoms: C_19  and  O_20 
REMARK    5  A    between atoms: C_22  and  C_23 
REMARK       I    between atoms: C_23  and  N_25 
REMARK    6  A    between atoms: N_25  and  C_27 
REMARK    7  A    between atoms: C_27  and  C_28 
ROOT
HETATM    1  C   UNL     1      -2.717  13.892  22.301  0.00  0.00     0.046 A 
HETATM    2  C   UNL     1      -4.073  14.098  21.961  0.00  0.00     0.082 A 
HETATM    3  C   UNL     1      -4.484  15.230  21.272  0.00  0.00     0.075 A 
HETATM    4  C   UNL     1      -3.544  16.185  20.898  0.00  0.00     0.084 A 
HETATM    5  C   UNL     1      -1.779  14.895  21.965  0.00  0.00     0.038 A 
HETATM    6  C   UNL     1      -2.174  16.028  21.207  0.00  0.00     0.066 A 
ENDROOT
BRANCH   1   7
HETATM    7  C   UNL     1      -2.361  12.559  22.887  0.00  0.00     0.172 A 
HETATM    8  N   UNL     1      -2.213  12.226  24.213  0.00  0.00    -0.244 N 
HETATM    9  C   UNL     1      -1.848  10.887  24.206  0.00  0.00     0.349 A 
HETATM   10  O   UNL     1      -1.495  10.155  25.126  0.00  0.00    -0.245 OA
HETATM   11  N   UNL     1      -1.838  10.504  22.875  0.00  0.00    -0.226 N 
HETATM   12  H   UNL     1      -1.444   9.637  22.533  0.00  0.00     0.194 HD
HETATM   13  N   UNL     1      -2.138  11.553  22.073  0.00  0.00    -0.151 NA
BRANCH   8  14
HETATM   14  C   UNL     1      -2.059  12.985  25.399  0.00  0.00     0.051 A 
HETATM   15  C   UNL     1      -2.860  12.814  26.545  0.00  0.00    -0.035 A 
HETATM   16  C   UNL     1      -4.079  11.933  26.575  0.00  0.00     0.050 C 
HETATM   17  C   UNL     1      -2.643  13.645  27.663  0.00  0.00     0.009 A 
HETATM   18  C   UNL     1      -1.735  14.701  27.617  0.00  0.00     0.001 A 
HETATM   19  C   UNL     1      -1.019  14.940  26.454  0.00  0.00     0.002 A 
HETATM   20  C   UNL     1      -1.168  14.080  25.364  0.00  0.00     0.031 A 
ENDBRANCH   8  14
ENDBRANCH   1   7
BRANCH   2  21
HETATM   21  O   UNL     1      -5.080  13.202  22.226  0.00  0.00    -0.360 OA
HETATM   22  H   UNL     1      -5.910  13.540  21.823  0.00  0.00     0.217 HD
ENDBRANCH   2  21
BRANCH   6  23
HETATM   23  C   UNL     1      -1.182  16.803  20.387  0.00  0.00     0.256 C 
HETATM   24  O   UNL     1      -1.528  17.025  19.220  0.00  0.00    -0.267 OA
HETATM   25  N   UNL     1       0.097  17.176  20.820  0.00  0.00    -0.348 N 
HETATM   26  C   UNL     1       1.003  17.704  19.800  0.00  0.00     0.153 C 
BRANCH  25  27
HETATM   27  C   UNL     1       0.645  17.089  22.173  0.00  0.00     0.164 C 
BRANCH  27  28
HETATM   28  C   UNL     1       1.693  16.023  22.431  0.00  0.00    -0.040 A 
HETATM   29  C   UNL     1       1.574  15.221  23.583  0.00  0.00     0.009 A 
HETATM   30  C   UNL     1       2.615  14.384  23.990  0.00  0.00     0.001 A 
HETATM   31  C   UNL     1       3.797  14.340  23.258  0.00  0.00     0.007 A 
HETATM   32  C   UNL     1       3.932  15.101  22.091  0.00  0.00    -0.061 A 
HETATM   33  C   UNL     1       2.874  15.932  21.677  0.00  0.00     0.015 A 
HETATM   34  C   UNL     1       5.249  15.119  21.370  0.00  0.00     0.048 C 
ENDBRANCH  27  28
ENDBRANCH  25  27
ENDBRANCH   6  23
BRANCH   4  35
HETATM   35  O   UNL     1      -3.995  17.256  20.173  0.00  0.00    -0.360 OA
HETATM   36  H   UNL     1      -3.988  18.054  20.736  0.00  0.00     0.217 HD
ENDBRANCH   4  35
TORSDOF 7
ENDMDL
MODEL 4
REMARK VINA RESULT:    -8.612      2.055      5.341
REMARK INTER + INTRA:         -14.602
REMARK INTER:                 -11.326
REMARK INTRA:                  -3.276
REMARK UNBOUND:                -2.969
REMARK  7 active torsions:
REMARK  status: ('A' for Active; 'I' for Inactive)
REMARK    1  A    between atoms: C_7  and  N_8 
REMARK    2  A    between atoms: C_14  and  C_15 
REMARK    3  A    between atoms: C_16  and  O_17 
REMARK    4  A    between atoms: C_19  and  O_20 
REMARK    5  A    between atoms: C_22  and  C_23 
REMARK       I    between atoms: C_23  and  N_25 
REMARK    6  A    between atoms: N_25  and  C_27 
REMARK    7  A    between atoms: C_27  and  C_28 
ROOT
HETATM    1  C   UNL     1      -3.459  11.902  23.965  0.00  0.00     0.046 A 
HETATM    2  C   UNL     1      -4.015  11.845  25.263  0.00  0.00     0.082 A 
HETATM    3  C   UNL     1      -3.475  11.030  26.248  0.00  0.00     0.075 A 
HETATM    4  C   UNL     1      -2.356  10.255  25.960  0.00  0.00     0.084 A 
HETATM    5  C   UNL     1      -2.358  11.067  23.668  0.00  0.00     0.038 A 
HETATM    6  C   UNL     1      -1.756  10.276  24.680  0.00  0.00     0.066 A 
ENDROOT
BRANCH   1   7
HETATM    7  C   UNL     1      -4.012  12.941  23.037  0.00  0.00     0.172 A 
HETATM    8  N   UNL     1      -3.426  14.120  22.637  0.00  0.00    -0.244 N 
HETATM    9  C   UNL     1      -4.367  14.723  21.813  0.00  0.00     0.349 A 
HETATM   10  O   UNL     1      -4.372  15.836  21.295  0.00  0.00    -0.245 OA
HETATM   11  N   UNL     1      -5.435  13.843  21.751  0.00  0.00    -0.226 N 
HETATM   12  H   UNL     1      -6.344  14.075  21.370  0.00  0.00     0.194 HD
HETATM   13  N   UNL     1      -5.208  12.758  22.527  0.00  0.00    -0.151 NA
BRANCH   8  14
HETATM   14  C   UNL     1      -2.331  14.878  23.117  0.00  0.00     0.051 A 
HETATM   15  C   UNL     1      -1.395  15.514  22.278  0.00  0.00    -0.035 A 
HETATM   16  C   UNL     1      -1.352  15.312  20.788  0.00  0.00     0.050 C 
HETATM   17  C   UNL     1      -0.322  16.219  22.859  0.00  0.00     0.009 A 
HETATM   18  C   UNL     1      -0.104  16.203  24.236  0.00  0.00     0.001 A 
HETATM   19  C   UNL     1      -0.963  15.491  25.058  0.00  0.00     0.002 A 
HETATM   20  C   UNL     1      -2.073  14.850  24.505  0.00  0.00     0.031 A 
ENDBRANCH   8  14
ENDBRANCH   1   7
BRANCH   2  21
HETATM   21  O   UNL     1      -5.080  12.604  25.682  0.00  0.00    -0.360 OA
HETATM   22  H   UNL     1      -5.909  12.152  25.412  0.00  0.00     0.217 HD
ENDBRANCH   2  21
BRANCH   6  23
HETATM   23  C   UNL     1      -0.328   9.823  24.574  0.00  0.00     0.256 C 
HETATM   24  O   UNL     1      -0.175   8.607  24.412  0.00  0.00    -0.267 OA
HETATM   25  N   UNL     1       0.788  10.652  24.748  0.00  0.00    -0.348 N 
HETATM   26  C   UNL     1       2.086   9.984  24.853  0.00  0.00     0.153 C 
BRANCH  25  27
HETATM   27  C   UNL     1       0.815  12.110  24.851  0.00  0.00     0.164 C 
BRANCH  27  28
HETATM   28  C   UNL     1       1.289  12.884  23.635  0.00  0.00    -0.040 A 
HETATM   29  C   UNL     1       0.697  12.613  22.386  0.00  0.00     0.009 A 
HETATM   30  C   UNL     1       1.238  13.124  21.205  0.00  0.00     0.001 A 
HETATM   31  C   UNL     1       2.387  13.907  21.249  0.00  0.00     0.007 A 
HETATM   32  C   UNL     1       2.980  14.219  22.479  0.00  0.00    -0.061 A 
HETATM   33  C   UNL     1       2.421  13.714  23.668  0.00  0.00     0.015 A 
HETATM   34  C   UNL     1       4.274  14.980  22.502  0.00  0.00     0.048 C 
ENDBRANCH  27  28
ENDBRANCH  25  27
ENDBRANCH   6  23
BRANCH   4  35
HETATM   35  O   UNL     1      -1.831   9.510  26.983  0.00  0.00    -0.360 OA
HETATM   36  H   UNL     1      -0.859   9.599  26.982  0.00  0.00     0.217 HD
ENDBRANCH   4  35
TORSDOF 7
ENDMDL
MODEL 5
REMARK VINA RESULT:    -8.596      2.733      5.360
REMARK INTER + INTRA:         -14.580
REMARK INTER:                 -12.166
REMARK INTRA:                  -2.414
REMARK UNBOUND:                -2.969
REMARK  7 active torsions:
REMARK  status: ('A' for Active; 'I' for Inactive)
REMARK    1  A    between atoms: C_7  and  N_8 
REMARK    2  A    between atoms: C_14  and  C_15 
REMARK    3  A    between atoms: C_16  and  O_17 
REMARK    4  A    between atoms: C_19  and  O_20 
REMARK    5  A    between atoms: C_22  and  C_23 
REMARK       I    between atoms: C_23  and  N_25 
REMARK    6  A    between atoms: N_25  and  C_27 
REMARK    7  A    between atoms: C_27  and  C_28 
ROOT
HETATM    1  C   UNL     1      -1.371  13.615  25.094  0.00  0.00     0.046 A 
HETATM    2  C   UNL     1      -1.026  14.625  26.021  0.00  0.00     0.082 A 
HETATM    3  C   UNL     1       0.087  15.432  25.832  0.00  0.00     0.075 A 
HETATM    4  C   UNL     1       0.880  15.255  24.702  0.00  0.00     0.084 A 
HETATM    5  C   UNL     1      -0.527  13.407  23.980  0.00  0.00     0.038 A 
HETATM    6  C   UNL     1       0.578  14.264  23.740  0.00  0.00     0.066 A 
ENDROOT
BRANCH   1   7
HETATM    7  C   UNL     1      -2.684  12.924  25.305  0.00  0.00     0.172 A 
HETATM    8  N   UNL     1      -2.907  11.622  25.691  0.00  0.00    -0.244 N 
HETATM    9  C   UNL     1      -4.288  11.484  25.702  0.00  0.00     0.349 A 
HETATM   10  O   UNL     1      -4.985  10.489  25.870  0.00  0.00    -0.245 OA
HETATM   11  N   UNL     1      -4.795  12.726  25.355  0.00  0.00    -0.226 N 
HETATM   12  H   UNL     1      -5.761  12.900  25.109  0.00  0.00     0.194 HD
HETATM   13  N   UNL     1      -3.792  13.598  25.095  0.00  0.00    -0.151 NA
BRANCH   8  14
HETATM   14  C   UNL     1      -2.090  10.467  25.743  0.00  0.00     0.051 A 
HETATM   15  C   UNL     1      -1.669   9.862  26.944  0.00  0.00    -0.035 A 
HETATM   16  C   UNL     1      -1.893  10.476  28.300  0.00  0.00     0.050 C 
HETATM   17  C   UNL     1      -0.830   8.731  26.885  0.00  0.00     0.009 A 
HETATM   18  C   UNL     1      -0.317   8.271  25.674  0.00  0.00     0.001 A 
HETATM   19  C   UNL     1      -0.643   8.928  24.497  0.00  0.00     0.002 A 
HETATM   20  C   UNL     1      -1.533  10.003  24.532  0.00  0.00     0.031 A 
ENDBRANCH   8  14
ENDBRANCH   1   7
BRANCH   2  21
HETATM   21  O   UNL     1      -1.761  14.931  27.140  0.00  0.00    -0.360 OA
HETATM   22  H   UNL     1      -2.228  14.119  27.437  0.00  0.00     0.217 HD
ENDBRANCH   2  21
BRANCH   6  23
HETATM   23  C   UNL     1       1.150  14.436  22.362  0.00  0.00     0.256 C 
HETATM   24  O   UNL     1       2.008  13.604  22.044  0.00  0.00    -0.267 OA
HETATM   25  N   UNL     1       0.855  15.501  21.501  0.00  0.00    -0.348 N 
HETATM   26  C   UNL     1       1.694  15.628  20.309  0.00  0.00     0.153 C 
BRANCH  25  27
HETATM   27  C   UNL     1      -0.186  16.516  21.655  0.00  0.00     0.164 C 
BRANCH  27  28
HETATM   28  C   UNL     1      -1.532  16.234  21.012  0.00  0.00    -0.040 A 
HETATM   29  C   UNL     1      -1.963  17.058  19.955  0.00  0.00     0.009 A 
HETATM   30  C   UNL     1      -3.273  16.993  19.476  0.00  0.00     0.001 A 
HETATM   31  C   UNL     1      -4.179  16.109  20.053  0.00  0.00     0.007 A 
HETATM   32  C   UNL     1      -3.771  15.255  21.085  0.00  0.00    -0.061 A 
HETATM   33  C   UNL     1      -2.445  15.314  21.553  0.00  0.00     0.015 A 
HETATM   34  C   UNL     1      -4.785  14.379  21.763  0.00  0.00     0.048 C 
ENDBRANCH  27  28
ENDBRANCH  25  27
ENDBRANCH   6  23
BRANCH   4  35
HETATM   35  O   UNL     1       1.934  16.113  24.537  0.00  0.00    -0.360 OA
HETATM   36  H   UNL     1       1.794  16.647  23.732  0.00  0.00     0.217 HD
ENDBRANCH   4  35
TORSDOF 7
ENDMDL
MODEL 6
REMARK VINA RESULT:    -8.577      3.376      5.916
REMARK INTER + INTRA:         -14.555
REMARK INTER:                 -12.576
REMARK INTRA:                  -1.979
REMARK UNBOUND:                -2.969
REMARK  7 active torsions:
REMARK  status: ('A' for Active; 'I' for Inactive)
REMARK    1  A    between atoms: C_7  and  N_8 
REMARK    2  A    between atoms: C_14  and  C_15 
REMARK    3  A    between atoms: C_16  and  O_17 
REMARK    4  A    between atoms: C_19  and  O_20 
REMARK    5  A    between atoms: C_22  and  C_23 
REMARK       I    between atoms: C_23  and  N_25 
REMARK    6  A    between atoms: N_25  and  C_27 
REMARK    7  A    between atoms: C_27  and  C_28 
ROOT
HETATM    1  C   UNL     1      -2.294  10.780  26.410  0.00  0.00     0.046 A 
HETATM    2  C   UNL     1      -3.691  10.861  26.610  0.00  0.00     0.082 A 
HETATM    3  C   UNL     1      -4.539  11.334  25.619  0.00  0.00     0.075 A 
HETATM    4  C   UNL     1      -4.010  11.732  24.396  0.00  0.00     0.084 A 
HETATM    5  C   UNL     1      -1.763  11.241  25.184  0.00  0.00     0.038 A 
HETATM    6  C   UNL     1      -2.622  11.669  24.139  0.00  0.00     0.066 A 
ENDROOT
BRANCH   1   7
HETATM    7  C   UNL     1      -1.496  10.094  27.477  0.00  0.00     0.172 A 
HETATM    8  N   UNL     1      -0.432   9.236  27.323  0.00  0.00    -0.244 N 
HETATM    9  C   UNL     1      -0.086   8.860  28.614  0.00  0.00     0.349 A 
HETATM   10  O   UNL     1       0.724   8.028  29.009  0.00  0.00    -0.245 OA
HETATM   11  N   UNL     1      -0.947   9.550  29.452  0.00  0.00    -0.226 N 
HETATM   12  H   UNL     1      -1.060   9.357  30.439  0.00  0.00     0.194 HD
HETATM   13  N   UNL     1      -1.824  10.291  28.734  0.00  0.00    -0.151 NA
BRANCH   8  14
HETATM   14  C   UNL     1       0.082   8.507  26.223  0.00  0.00     0.051 A 
HETATM   15  C   UNL     1       1.138   8.964  25.410  0.00  0.00    -0.035 A 
HETATM   16  C   UNL     1       1.716  10.350  25.509  0.00  0.00     0.050 C 
HETATM   17  C   UNL     1       1.555   8.174  24.319  0.00  0.00     0.009 A 
HETATM   18  C   UNL     1       0.872   7.013  23.962  0.00  0.00     0.001 A 
HETATM   19  C   UNL     1      -0.235   6.614  24.696  0.00  0.00     0.002 A 
HETATM   20  C   UNL     1      -0.613   7.345  25.823  0.00  0.00     0.031 A 
ENDBRANCH   8  14
ENDBRANCH   1   7
BRANCH   2  21
HETATM   21  O   UNL     1      -4.333  10.444  27.751  0.00  0.00    -0.360 OA
HETATM   22  H   UNL     1      -4.736  11.228  28.184  0.00  0.00     0.217 HD
ENDBRANCH   2  21
BRANCH   6  23
HETATM   23  C   UNL     1      -2.180  11.643  22.704  0.00  0.00     0.256 C 
HETATM   24  O   UNL     1      -2.405  10.583  22.107  0.00  0.00    -0.267 OA
HETATM   25  N   UNL     1      -1.465  12.666  22.068  0.00  0.00    -0.348 N 
HETATM   26  C   UNL     1      -0.911  12.353  20.750  0.00  0.00     0.153 C 
BRANCH  25  27
HETATM   27  C   UNL     1      -1.191  14.012  22.569  0.00  0.00     0.164 C 
BRANCH  27  28
HETATM   28  C   UNL     1      -1.672  15.178  21.725  0.00  0.00    -0.040 A 
HETATM   29  C   UNL     1      -3.053  15.314  21.482  0.00  0.00     0.009 A 
HETATM   30  C   UNL     1      -3.534  16.224  20.540  0.00  0.00     0.001 A 
HETATM   31  C   UNL     1      -2.643  17.010  19.816  0.00  0.00     0.007 A 
HETATM   32  C   UNL     1      -1.267  16.920  20.058  0.00  0.00    -0.061 A 
HETATM   33  C   UNL     1      -0.788  16.011  21.020  0.00  0.00     0.015 A 
HETATM   34  C   UNL     1      -0.314  17.700  19.199  0.00  0.00     0.048 C 
ENDBRANCH  27  28
ENDBRANCH  25  27
ENDBRANCH   6  23
BRANCH   4  35
HETATM   35  O   UNL     1      -4.897  12.140  23.434  0.00  0.00    -0.360 OA
HETATM   36  H   UNL     1      -5.309  11.357  23.021  0.00  0.00     0.217 HD
ENDBRANCH   4  35
TORSDOF 7
ENDMDL
MODEL 7
REMARK VINA RESULT:    -8.563      2.087      3.736
REMARK INTER + INTRA:         -14.536
REMARK INTER:                 -11.567
REMARK INTRA:                  -2.969
REMARK UNBOUND:                -2.969
REMARK  7 active torsions:
REMARK  status: ('A' for Active; 'I' for Inactive)
REMARK    1  A    between atoms: C_7  and  N_8 
REMARK    2  A    between atoms: C_14  and  C_15 
REMARK    3  A    between atoms: C_16  and  O_17 
REMARK    4  A    between atoms: C_19  and  O_20 
REMARK    5  A    between atoms: C_22  and  C_23 
REMARK       I    between atoms: C_23  and  N_25 
REMARK    6  A    between atoms: N_25  and  C_27 
REMARK    7  A    between atoms: C_27  and  C_28 
ROOT
HETATM    1  C   UNL     1      -2.520  12.639  23.207  0.00  0.00     0.046 A 
HETATM    2  C   UNL     1      -3.351  13.097  24.255  0.00  0.00     0.082 A 
HETATM    3  C   UNL     1      -4.367  14.013  24.027  0.00  0.00     0.075 A 
HETATM    4  C   UNL     1      -4.585  14.490  22.738  0.00  0.00     0.084 A 
HETATM    5  C   UNL     1      -2.714  13.173  21.913  0.00  0.00     0.038 A 
HETATM    6  C   UNL     1      -3.788  14.063  21.652  0.00  0.00     0.066 A 
ENDROOT
BRANCH   1   7
HETATM    7  C   UNL     1      -1.574  11.523  23.533  0.00  0.00     0.172 A 
HETATM    8  N   UNL     1      -0.199  11.558  23.566  0.00  0.00    -0.244 N 
HETATM    9  C   UNL     1       0.183  10.261  23.884  0.00  0.00     0.349 A 
HETATM   10  O   UNL     1       1.297   9.749  23.926  0.00  0.00    -0.245 OA
HETATM   11  N   UNL     1      -0.995   9.551  24.054  0.00  0.00    -0.226 N 
HETATM   12  H   UNL     1      -1.048   8.543  24.121  0.00  0.00     0.194 HD
HETATM   13  N   UNL     1      -2.069  10.339  23.814  0.00  0.00    -0.151 NA
BRANCH   8  14
HETATM   14  C   UNL     1       0.766  12.468  23.072  0.00  0.00     0.051 A 
HETATM   15  C   UNL     1       0.987  12.703  21.701  0.00  0.00    -0.035 A 
HETATM   16  C   UNL     1       0.349  11.886  20.611  0.00  0.00     0.050 C 
HETATM   17  C   UNL     1       1.996  13.608  21.314  0.00  0.00     0.009 A 
HETATM   18  C   UNL     1       2.852  14.185  22.251  0.00  0.00     0.001 A 
HETATM   19  C   UNL     1       2.706  13.875  23.595  0.00  0.00     0.002 A 
HETATM   20  C   UNL     1       1.664  13.039  24.000  0.00  0.00     0.031 A 
ENDBRANCH   8  14
ENDBRANCH   1   7
BRANCH   2  21
HETATM   21  O   UNL     1      -3.270  12.656  25.554  0.00  0.00    -0.360 OA
HETATM   22  H   UNL     1      -4.149  12.776  25.977  0.00  0.00     0.217 HD
ENDBRANCH   2  21
BRANCH   6  23
HETATM   23  C   UNL     1      -4.354  14.220  20.269  0.00  0.00     0.256 C 
HETATM   24  O   UNL     1      -4.796  13.181  19.764  0.00  0.00    -0.267 OA
HETATM   25  N   UNL     1      -4.312  15.401  19.517  0.00  0.00    -0.348 N 
HETATM   26  C   UNL     1      -4.689  15.290  18.108  0.00  0.00     0.153 C 
BRANCH  25  27
HETATM   27  C   UNL     1      -3.924  16.736  19.967  0.00  0.00     0.164 C 
BRANCH  27  28
HETATM   28  C   UNL     1      -2.460  16.957  20.305  0.00  0.00    -0.040 A 
HETATM   29  C   UNL     1      -1.566  17.277  19.264  0.00  0.00     0.009 A 
HETATM   30  C   UNL     1      -0.185  17.271  19.472  0.00  0.00     0.001 A 
HETATM   31  C   UNL     1       0.327  16.937  20.721  0.00  0.00     0.007 A 
HETATM   32  C   UNL     1      -0.538  16.645  21.783  0.00  0.00    -0.061 A 
HETATM   33  C   UNL     1      -1.929  16.667  21.572  0.00  0.00     0.015 A 
HETATM   34  C   UNL     1       0.032  16.188  23.095  0.00  0.00     0.048 C 
ENDBRANCH  27  28
ENDBRANCH  25  27
ENDBRANCH   6  23
BRANCH   4  35
HETATM   35  O   UNL     1      -5.635  15.351  22.558  0.00  0.00    -0.360 OA
HETATM   36  H   UNL     1      -5.295  16.223  22.278  0.00  0.00     0.217 HD
ENDBRANCH   4  35
TORSDOF 7
ENDMDL
MODEL 8
REMARK VINA RESULT:    -8.541      2.704      5.389
REMARK INTER + INTRA:         -14.506
REMARK INTER:                 -12.885
REMARK INTRA:                  -1.620
REMARK UNBOUND:                -2.969
REMARK  7 active torsions:
REMARK  status: ('A' for Active; 'I' for Inactive)
REMARK    1  A    between atoms: C_7  and  N_8 
REMARK    2  A    between atoms: C_14  and  C_15 
REMARK    3  A    between atoms: C_16  and  O_17 
REMARK    4  A    between atoms: C_19  and  O_20 
REMARK    5  A    between atoms: C_22  and  C_23 
REMARK       I    between atoms: C_23  and  N_25 
REMARK    6  A    between atoms: N_25  and  C_27 
REMARK    7  A    between atoms: C_27  and  C_28 
ROOT
HETATM    1  C   UNL     1      -1.737  13.393  25.953  0.00  0.00     0.046 A 
HETATM    2  C   UNL     1      -1.798  14.303  27.033  0.00  0.00     0.082 A 
HETATM    3  C   UNL     1      -0.778  15.212  27.273  0.00  0.00     0.075 A 
HETATM    4  C   UNL     1       0.330  15.239  26.431  0.00  0.00     0.084 A 
HETATM    5  C   UNL     1      -0.582  13.392  25.139  0.00  0.00     0.038 A 
HETATM    6  C   UNL     1       0.441  14.355  25.333  0.00  0.00     0.066 A 
ENDROOT
BRANCH   1   7
HETATM    7  C   UNL     1      -2.968  12.580  25.683  0.00  0.00     0.172 A 
HETATM    8  N   UNL     1      -3.277  11.856  24.555  0.00  0.00    -0.244 N 
HETATM    9  C   UNL     1      -4.536  11.327  24.806  0.00  0.00     0.349 A 
HETATM   10  O   UNL     1      -5.295  10.702  24.072  0.00  0.00    -0.245 OA
HETATM   11  N   UNL     1      -4.875  11.744  26.083  0.00  0.00    -0.226 N 
HETATM   12  H   UNL     1      -5.801  11.665  26.482  0.00  0.00     0.194 HD
HETATM   13  N   UNL     1      -3.905  12.532  26.603  0.00  0.00    -0.151 NA
BRANCH   8  14
HETATM   14  C   UNL     1      -2.761  11.835  23.237  0.00  0.00     0.051 A 
HETATM   15  C   UNL     1      -1.754  10.950  22.807  0.00  0.00    -0.035 A 
HETATM   16  C   UNL     1      -0.991  10.051  23.744  0.00  0.00     0.050 C 
HETATM   17  C   UNL     1      -1.288  11.033  21.480  0.00  0.00     0.009 A 
HETATM   18  C   UNL     1      -1.719  12.043  20.621  0.00  0.00     0.001 A 
HETATM   19  C   UNL     1      -2.634  12.982  21.073  0.00  0.00     0.002 A 
HETATM   20  C   UNL     1      -3.160  12.868  22.361  0.00  0.00     0.031 A 
ENDBRANCH   8  14
ENDBRANCH   1   7
BRANCH   2  21
HETATM   21  O   UNL     1      -2.862  14.409  27.894  0.00  0.00    -0.360 OA
HETATM   22  H   UNL     1      -3.244  13.514  28.029  0.00  0.00     0.217 HD
ENDBRANCH   2  21
BRANCH   6  23
HETATM   23  C   UNL     1       1.373  14.742  24.221  0.00  0.00     0.256 C 
HETATM   24  O   UNL     1       2.432  14.104  24.180  0.00  0.00    -0.267 OA
HETATM   25  N   UNL     1       1.164  15.807  23.336  0.00  0.00    -0.348 N 
HETATM   26  C   UNL     1       2.294  16.181  22.485  0.00  0.00     0.153 C 
BRANCH  25  27
HETATM   27  C   UNL     1      -0.049  16.606  23.166  0.00  0.00     0.164 C 
BRANCH  27  28
HETATM   28  C   UNL     1      -0.634  16.691  21.768  0.00  0.00    -0.040 A 
HETATM   29  C   UNL     1       0.078  17.395  20.777  0.00  0.00     0.009 A 
HETATM   30  C   UNL     1      -0.507  17.698  19.546  0.00  0.00     0.001 A 
HETATM   31  C   UNL     1      -1.818  17.311  19.286  0.00  0.00     0.007 A 
HETATM   32  C   UNL     1      -2.540  16.583  20.240  0.00  0.00    -0.061 A 
HETATM   33  C   UNL     1      -1.940  16.267  21.474  0.00  0.00     0.015 A 
HETATM   34  C   UNL     1      -3.984  16.262  19.984  0.00  0.00     0.048 C 
ENDBRANCH  27  28
ENDBRANCH  25  27
ENDBRANCH   6  23
BRANCH   4  35
HETATM   35  O   UNL     1       1.282  16.191  26.681  0.00  0.00    -0.360 OA
HETATM   36  H   UNL     1       0.972  17.054  26.346  0.00  0.00     0.217 HD
ENDBRANCH   4  35
TORSDOF 7
ENDMDL
MODEL 9
REMARK VINA RESULT:    -8.424      2.040      5.675
REMARK INTER + INTRA:         -14.347
REMARK INTER:                 -11.888
REMARK INTRA:                  -2.459
REMARK UNBOUND:                -2.969
REMARK  7 active torsions:
REMARK  status: ('A' for Active; 'I' for Inactive)
REMARK    1  A    between atoms: C_7  and  N_8 
REMARK    2  A    between atoms: C_14  and  C_15 
REMARK    3  A    between atoms: C_16  and  O_17 
REMARK    4  A    between atoms: C_19  and  O_20 
REMARK    5  A    between atoms: C_22  and  C_23 
REMARK       I    between atoms: C_23  and  N_25 
REMARK    6  A    between atoms: N_25  and  C_27 
REMARK    7  A    between atoms: C_27  and  C_28 
ROOT
HETATM    1  C   UNL     1      -2.138  15.316  20.974  0.00  0.00     0.046 A 
HETATM    2  C   UNL     1      -3.241  15.482  20.106  0.00  0.00     0.082 A 
HETATM    3  C   UNL     1      -4.465  14.882  20.365  0.00  0.00     0.075 A 
HETATM    4  C   UNL     1      -4.619  14.104  21.509  0.00  0.00     0.084 A 
HETATM    5  C   UNL     1      -2.291  14.478  22.102  0.00  0.00     0.038 A 
HETATM    6  C   UNL     1      -3.552  13.908  22.414  0.00  0.00     0.066 A 
ENDROOT
BRANCH   1   7
HETATM    7  C   UNL     1      -0.923  16.147  20.691  0.00  0.00     0.172 A 
HETATM    8  N   UNL     1       0.337  16.019  21.226  0.00  0.00    -0.244 N 
HETATM    9  C   UNL     1       1.072  17.052  20.661  0.00  0.00     0.349 A 
HETATM   10  O   UNL     1       2.214  17.435  20.894  0.00  0.00    -0.245 OA
HETATM   11  N   UNL     1       0.206  17.704  19.798  0.00  0.00    -0.226 N 
HETATM   12  H   UNL     1       0.394  18.601  19.370  0.00  0.00     0.194 HD
HETATM   13  N   UNL     1      -1.027  17.145  19.843  0.00  0.00    -0.151 NA
BRANCH   8  14
HETATM   14  C   UNL     1       0.855  15.328  22.348  0.00  0.00     0.051 A 
HETATM   15  C   UNL     1       1.487  14.071  22.268  0.00  0.00    -0.035 A 
HETATM   16  C   UNL     1       1.522  13.245  21.010  0.00  0.00     0.050 C 
HETATM   17  C   UNL     1       1.940  13.454  23.451  0.00  0.00     0.009 A 
HETATM   18  C   UNL     1       1.675  14.005  24.704  0.00  0.00     0.001 A 
HETATM   19  C   UNL     1       0.961  15.189  24.795  0.00  0.00     0.002 A 
HETATM   20  C   UNL     1       0.571  15.851  23.629  0.00  0.00     0.031 A 
ENDBRANCH   8  14
ENDBRANCH   1   7
BRANCH   2  21
HETATM   21  O   UNL     1      -3.227  16.270  18.981  0.00  0.00    -0.360 OA
HETATM   22  H   UNL     1      -2.353  16.714  18.924  0.00  0.00     0.217 HD
ENDBRANCH   2  21
BRANCH   6  23
HETATM   23  C   UNL     1      -3.896  13.491  23.816  0.00  0.00     0.256 C 
HETATM   24  O   UNL     1      -4.357  14.390  24.530  0.00  0.00    -0.267 OA
HETATM   25  N   UNL     1      -3.635  12.228  24.361  0.00  0.00    -0.348 N 
HETATM   26  C   UNL     1      -3.814  12.092  25.807  0.00  0.00     0.153 C 
BRANCH  25  27
HETATM   27  C   UNL     1      -3.190  11.024  23.661  0.00  0.00     0.164 C 
BRANCH  27  28
HETATM   28  C   UNL     1      -1.748  10.596  23.863  0.00  0.00    -0.040 A 
HETATM   29  C   UNL     1      -0.811  10.872  22.848  0.00  0.00     0.009 A 
HETATM   30  C   UNL     1       0.467  10.312  22.874  0.00  0.00     0.001 A 
HETATM   31  C   UNL     1       0.830   9.457  23.910  0.00  0.00     0.007 A 
HETATM   32  C   UNL     1      -0.069   9.188  24.949  0.00  0.00    -0.061 A 
HETATM   33  C   UNL     1      -1.352   9.768  24.926  0.00  0.00     0.015 A 
HETATM   34  C   UNL     1       0.300   8.186  26.004  0.00  0.00     0.048 C 
ENDBRANCH  27  28
ENDBRANCH  25  27
ENDBRANCH   6  23
BRANCH   4  35
HETATM   35  O   UNL     1      -5.862  13.580  21.745  0.00  0.00    -0.360 OA
HETATM   36  H   UNL     1      -5.937  13.336  22.688  0.00  0.00     0.217 HD
ENDBRANCH   4  35
TORSDOF 7
ENDMDL
