MODEL 1
REMARK VINA RESULT:    -9.224      0.000      0.000
REMARK INTER + INTRA:         -16.831
REMARK INTER:                 -12.748
REMARK INTRA:                  -4.083
REMARK UNBOUND:                -3.833
REMARK  8 active torsions:
REMARK  status: ('A' for Active; 'I' for Inactive)
REMARK    1  A    between atoms: C_7  and  N_8 
REMARK    2  A    between atoms: C_14  and  C_15 
REMARK    3  A    between atoms: C_17  and  C_18 
REMARK       I    between atoms: C_18  and  N_20 
REMARK    4  A    between atoms: N_20  and  C_22 
REMARK    5  A    between atoms: C_22  and  C_23 
REMARK    6  A    between atoms: C_28  and  C_29 
REMARK    7  A    between atoms: C_35  and  O_36 
REMARK    8  A    between atoms: C_38  and  O_39 
ROOT
HETATM    1  C   UNL     1       9.208  11.564  24.409  0.00  0.00     0.046 C 
HETATM    2  C   UNL     1       7.840  11.221  24.446  0.00  0.00     0.038 C 
HETATM    3  C   UNL     1       7.285  10.188  23.682  0.00  0.00     0.066 C 
HETATM    4  C   UNL     1       8.135   9.494  22.818  0.00  0.00     0.084 C 
HETATM    5  C   UNL     1       9.501   9.774  22.787  0.00  0.00     0.075 C 
HETATM    6  C   UNL     1      10.037  10.756  23.632  0.00  0.00     0.082 C 
ENDROOT
BRANCH   3   7
HETATM    7  C   UNL     1       5.891   9.700  23.926  0.00  0.00     0.256 C 
HETATM    8  O   UNL     1       5.637   8.560  23.529  0.00  0.00    -0.267 OA
HETATM    9  N   UNL     1       4.951  10.476  24.614  0.00  0.00    -0.348 N 
HETATM   10  C   UNL     1       3.762   9.811  25.134  0.00  0.00     0.153 C 
BRANCH   9  11
HETATM   11  C   UNL     1       4.898  11.936  24.506  0.00  0.00     0.165 C 
BRANCH  11  12
HETATM   12  C   UNL     1       3.771  12.538  23.675  0.00  0.00    -0.029 A 
HETATM   13  C   UNL     1       2.632  13.074  24.322  0.00  0.00     0.010 A 
HETATM   14  C   UNL     1       1.517  13.508  23.612  0.00  0.00     0.001 A 
HETATM   15  C   UNL     1       1.518  13.431  22.231  0.00  0.00     0.001 A 
HETATM   16  C   UNL     1       2.658  12.975  21.564  0.00  0.00     0.013 A 
HETATM   17  C   UNL     1       3.813  12.527  22.250  0.00  0.00    -0.017 A 
BRANCH  17  18
HETATM   18  C   UNL     1       4.966  12.023  21.451  0.00  0.00    -0.008 A 
HETATM   19  C   UNL     1       6.175  12.733  21.380  0.00  0.00     0.015 A 
HETATM   20  C   UNL     1       7.218  12.303  20.558  0.00  0.00     0.020 A 
HETATM   21  C   UNL     1       7.028  11.166  19.796  0.00  0.00     0.116 A 
HETATM   22  N   UNL     1       5.923  10.403  19.878  0.00  0.00    -0.272 NA
HETATM   23  C   UNL     1       4.954  10.827  20.728  0.00  0.00     0.128 A 
ENDBRANCH  17  18
ENDBRANCH  11  12
ENDBRANCH   9  11
ENDBRANCH   3   7
BRANCH   4  24
HETATM   24  O   UNL     1       7.709   8.467  22.016  0.00  0.00    -0.360 OA
HETATM   25  H   UNL     1       8.213   8.519  21.173  0.00  0.00     0.217 HD
ENDBRANCH   4  24
BRANCH   1  26
HETATM   26  C   UNL     1       9.592  12.704  25.304  0.00  0.00     0.172 A 
HETATM   27  N   UNL     1       9.038  13.962  25.378  0.00  0.00    -0.244 N 
HETATM   28  C   UNL     1       9.804  14.659  26.292  0.00  0.00     0.349 A 
HETATM   29  O   UNL     1       9.729  15.825  26.651  0.00  0.00    -0.245 OA
HETATM   30  N   UNL     1      10.721  13.738  26.778  0.00  0.00    -0.226 N 
HETATM   31  H   UNL     1      11.430  13.910  27.476  0.00  0.00     0.194 HD
HETATM   32  N   UNL     1      10.586  12.545  26.147  0.00  0.00    -0.151 NA
BRANCH  27  33
HETATM   33  C   UNL     1       7.998  14.555  24.648  0.00  0.00     0.051 C 
HETATM   34  C   UNL     1       8.175  15.066  23.350  0.00  0.00    -0.035 C 
HETATM   35  C   UNL     1       9.349  14.674  22.495  0.00  0.00     0.050 C 
HETATM   36  C   UNL     1       7.164  15.873  22.804  0.00  0.00     0.009 C 
HETATM   37  C   UNL     1       5.977  16.102  23.501  0.00  0.00     0.001 C 
HETATM   38  C   UNL     1       5.746  15.474  24.719  0.00  0.00     0.002 C 
HETATM   39  C   UNL     1       6.756  14.701  25.292  0.00  0.00     0.031 C 
ENDBRANCH  27  33
ENDBRANCH   1  26
BRANCH   6  40
HETATM   40  O   UNL     1      11.391  10.798  23.771  0.00  0.00    -0.360 OA
HETATM   41  H   UNL     1      11.647  10.574  24.680  0.00  0.00     0.217 HD
ENDBRANCH   6  40
TORSDOF 8
ENDMDL
MODEL 2
REMARK VINA RESULT:    -9.112      2.465      6.365
REMARK INTER + INTRA:         -16.674
REMARK INTER:                 -12.683
REMARK INTRA:                  -3.991
REMARK UNBOUND:                -3.833
REMARK  8 active torsions:
REMARK  status: ('A' for Active; 'I' for Inactive)
REMARK    1  A    between atoms: C_7  and  N_8 
REMARK    2  A    between atoms: C_14  and  C_15 
REMARK    3  A    between atoms: C_17  and  C_18 
REMARK       I    between atoms: C_18  and  N_20 
REMARK    4  A    between atoms: N_20  and  C_22 
REMARK    5  A    between atoms: C_22  and  C_23 
REMARK    6  A    between atoms: C_28  and  C_29 
REMARK    7  A    between atoms: C_35  and  O_36 
REMARK    8  A    between atoms: C_38  and  O_39 
ROOT
HETATM    1  C   UNL     1       6.185  12.529  21.448  0.00  0.00     0.046 C 
HETATM    2  C   UNL     1       7.093  13.569  21.739  0.00  0.00     0.038 C 
HETATM    3  C   UNL     1       8.381  13.638  21.197  0.00  0.00     0.066 C 
HETATM    4  C   UNL     1       8.788  12.600  20.357  0.00  0.00     0.084 C 
HETATM    5  C   UNL     1       7.903  11.578  20.011  0.00  0.00     0.075 C 
HETATM    6  C   UNL     1       6.589  11.588  20.501  0.00  0.00     0.082 C 
ENDROOT
BRANCH   3   7
HETATM    7  C   UNL     1       9.220  14.871  21.336  0.00  0.00     0.256 C 
HETATM    8  O   UNL     1       9.003  15.770  20.520  0.00  0.00    -0.267 OA
HETATM    9  N   UNL     1      10.154  15.012  22.369  0.00  0.00    -0.348 N 
HETATM   10  C   UNL     1      10.654  16.349  22.663  0.00  0.00     0.153 C 
BRANCH   9  11
HETATM   11  C   UNL     1      10.931  13.886  22.892  0.00  0.00     0.165 C 
BRANCH  11  12
HETATM   12  C   UNL     1      10.917  13.664  24.400  0.00  0.00    -0.029 A 
HETATM   13  C   UNL     1      11.328  14.705  25.266  0.00  0.00     0.010 A 
HETATM   14  C   UNL     1      11.467  14.512  26.637  0.00  0.00     0.001 A 
HETATM   15  C   UNL     1      11.183  13.273  27.181  0.00  0.00     0.001 A 
HETATM   16  C   UNL     1      10.705  12.249  26.360  0.00  0.00     0.013 A 
HETATM   17  C   UNL     1      10.549  12.406  24.961  0.00  0.00    -0.017 A 
BRANCH  17  18
HETATM   18  C   UNL     1      10.067  11.242  24.163  0.00  0.00    -0.008 A 
HETATM   19  C   UNL     1       8.697  10.973  24.012  0.00  0.00     0.015 A 
HETATM   20  C   UNL     1       8.256   9.832  23.341  0.00  0.00     0.020 A 
HETATM   21  C   UNL     1       9.200   8.957  22.839  0.00  0.00     0.116 A 
HETATM   22  N   UNL     1      10.522   9.199  22.885  0.00  0.00    -0.272 NA
HETATM   23  C   UNL     1      10.909  10.345  23.501  0.00  0.00     0.128 A 
ENDBRANCH  17  18
ENDBRANCH  11  12
ENDBRANCH   9  11
ENDBRANCH   3   7
BRANCH   4  24
HETATM   24  O   UNL     1      10.025  12.553  19.771  0.00  0.00    -0.360 OA
HETATM   25  H   UNL     1      10.617  13.155  20.275  0.00  0.00     0.217 HD
ENDBRANCH   4  24
BRANCH   1  26
HETATM   26  C   UNL     1       4.858  12.644  22.137  0.00  0.00     0.172 A 
HETATM   27  N   UNL     1       4.577  13.178  23.375  0.00  0.00    -0.244 N 
HETATM   28  C   UNL     1       3.227  12.966  23.579  0.00  0.00     0.349 A 
HETATM   29  O   UNL     1       2.532  13.220  24.552  0.00  0.00    -0.245 OA
HETATM   30  N   UNL     1       2.765  12.395  22.403  0.00  0.00    -0.226 N 
HETATM   31  H   UNL     1       1.814  12.120  22.204  0.00  0.00     0.194 HD
HETATM   32  N   UNL     1       3.785  12.190  21.533  0.00  0.00    -0.151 NA
BRANCH  27  33
HETATM   33  C   UNL     1       5.416  13.733  24.352  0.00  0.00     0.051 C 
HETATM   34  C   UNL     1       5.693  15.110  24.422  0.00  0.00    -0.035 C 
HETATM   35  C   UNL     1       4.830  16.131  23.734  0.00  0.00     0.050 C 
HETATM   36  C   UNL     1       6.740  15.541  25.253  0.00  0.00     0.009 C 
HETATM   37  C   UNL     1       7.440  14.634  26.050  0.00  0.00     0.001 C 
HETATM   38  C   UNL     1       7.063  13.297  26.088  0.00  0.00     0.002 C 
HETATM   39  C   UNL     1       6.052  12.846  25.239  0.00  0.00     0.031 C 
ENDBRANCH  27  33
ENDBRANCH   1  26
BRANCH   6  40
HETATM   40  O   UNL     1       5.693  10.743  19.923  0.00  0.00    -0.360 OA
HETATM   41  H   UNL     1       4.900  11.228  19.641  0.00  0.00     0.217 HD
ENDBRANCH   6  40
TORSDOF 8
ENDMDL
MODEL 3
REMARK VINA RESULT:    -9.084      2.435      5.620
REMARK INTER + INTRA:         -16.634
REMARK INTER:                 -12.042
REMARK INTRA:                  -4.592
REMARK UNBOUND:                -3.833
REMARK  8 active torsions:
REMARK  status: ('A' for Active; 'I' for Inactive)
REMARK    1  A    between atoms: C_7  and  N_8 
REMARK    2  A    between atoms: C_14  and  C_15 
REMARK    3  A    between atoms: C_17  and  C_18 
REMARK       I    between atoms: C_18  and  N_20 
REMARK    4  A    between atoms: N_20  and  C_22 
REMARK    5  A    between atoms: C_22  and  C_23 
REMARK    6  A    between atoms: C_28  and  C_29 
REMARK    7  A    between atoms: C_35  and  O_36 
REMARK    8  A    between atoms: C_38  and  O_39 
ROOT
HETATM    1  C   UNL     1       6.937  13.760  21.796  0.00  0.00     0.046 C 
HETATM    2  C   UNL     1       6.792  12.654  20.932  0.00  0.00     0.038 C 
HETATM    3  C   UNL     1       5.591  11.955  20.773  0.00  0.00     0.066 C 
HETATM    4  C   UNL     1       4.498  12.361  21.542  0.00  0.00     0.084 C 
HETATM    5  C   UNL     1       4.591  13.477  22.374  0.00  0.00     0.075 C 
HETATM    6  C   UNL     1       5.785  14.208  22.440  0.00  0.00     0.082 C 
ENDROOT
BRANCH   3   7
HETATM    7  C   UNL     1       5.413  10.950  19.676  0.00  0.00     0.256 C 
HETATM    8  O   UNL     1       5.099  11.401  18.573  0.00  0.00    -0.267 OA
HETATM    9  N   UNL     1       5.646   9.586  19.885  0.00  0.00    -0.348 N 
HETATM   10  C   UNL     1       5.816   8.733  18.715  0.00  0.00     0.153 C 
BRANCH   9  11
HETATM   11  C   UNL     1       5.347   8.916  21.153  0.00  0.00     0.165 C 
BRANCH  11  12
HETATM   12  C   UNL     1       6.518   8.326  21.929  0.00  0.00    -0.029 A 
HETATM   13  C   UNL     1       7.288   7.287  21.352  0.00  0.00     0.010 A 
HETATM   14  C   UNL     1       8.277   6.618  22.069  0.00  0.00     0.001 A 
HETATM   15  C   UNL     1       8.532   6.983  23.377  0.00  0.00     0.001 A 
HETATM   16  C   UNL     1       7.838   8.054  23.946  0.00  0.00     0.013 A 
HETATM   17  C   UNL     1       6.827   8.760  23.251  0.00  0.00    -0.017 A 
BRANCH  17  18
HETATM   18  C   UNL     1       6.116   9.865  23.956  0.00  0.00    -0.008 A 
HETATM   19  C   UNL     1       6.778  11.048  24.322  0.00  0.00     0.015 A 
HETATM   20  C   UNL     1       6.130  12.038  25.061  0.00  0.00     0.020 A 
HETATM   21  C   UNL     1       4.821  11.822  25.444  0.00  0.00     0.116 A 
HETATM   22  N   UNL     1       4.111  10.747  25.059  0.00  0.00    -0.272 NA
HETATM   23  C   UNL     1       4.761   9.831  24.298  0.00  0.00     0.128 A 
ENDBRANCH  17  18
ENDBRANCH  11  12
ENDBRANCH   9  11
ENDBRANCH   3   7
BRANCH   4  24
HETATM   24  O   UNL     1       3.272  11.753  21.478  0.00  0.00    -0.360 OA
HETATM   25  H   UNL     1       2.949  11.637  22.400  0.00  0.00     0.217 HD
ENDBRANCH   4  24
BRANCH   1  26
HETATM   26  C   UNL     1       8.310  14.361  21.820  0.00  0.00     0.172 A 
HETATM   27  N   UNL     1       9.483  13.806  22.278  0.00  0.00    -0.244 N 
HETATM   28  C   UNL     1      10.442  14.795  22.158  0.00  0.00     0.349 A 
HETATM   29  O   UNL     1      11.620  14.789  22.483  0.00  0.00    -0.245 OA
HETATM   30  N   UNL     1       9.794  15.858  21.546  0.00  0.00    -0.226 N 
HETATM   31  H   UNL     1      10.205  16.745  21.296  0.00  0.00     0.194 HD
HETATM   32  N   UNL     1       8.480  15.579  21.359  0.00  0.00    -0.151 NA
BRANCH  27  33
HETATM   33  C   UNL     1       9.745  12.562  22.870  0.00  0.00     0.051 C 
HETATM   34  C   UNL     1       9.933  12.404  24.255  0.00  0.00    -0.035 C 
HETATM   35  C   UNL     1       9.487  13.446  25.242  0.00  0.00     0.050 C 
HETATM   36  C   UNL     1      10.449  11.185  24.726  0.00  0.00     0.009 C 
HETATM   37  C   UNL     1      10.699  10.128  23.849  0.00  0.00     0.001 C 
HETATM   38  C   UNL     1      10.371  10.240  22.503  0.00  0.00     0.002 C 
HETATM   39  C   UNL     1       9.894  11.456  22.014  0.00  0.00     0.031 C 
ENDBRANCH  27  33
ENDBRANCH   1  26
BRANCH   6  40
HETATM   40  O   UNL     1       5.743  15.431  23.036  0.00  0.00    -0.360 OA
HETATM   41  H   UNL     1       4.835  15.773  23.050  0.00  0.00     0.217 HD
ENDBRANCH   6  40
TORSDOF 8
ENDMDL
MODEL 4
REMARK VINA RESULT:    -8.424      2.425      4.810
REMARK INTER + INTRA:         -15.705
REMARK INTER:                 -12.833
REMARK INTRA:                  -2.872
REMARK UNBOUND:                -3.833
REMARK  8 active torsions:
REMARK  status: ('A' for Active; 'I' for Inactive)
REMARK    1  A    between atoms: C_7  and  N_8 
REMARK    2  A    between atoms: C_14  and  C_15 
REMARK    3  A    between atoms: C_17  and  C_18 
REMARK       I    between atoms: C_18  and  N_20 
REMARK    4  A    between atoms: N_20  and  C_22 
REMARK    5  A    between atoms: C_22  and  C_23 
REMARK    6  A    between atoms: C_28  and  C_29 
REMARK    7  A    between atoms: C_35  and  O_36 
REMARK    8  A    between atoms: C_38  and  O_39 
ROOT
HETATM    1  C   UNL     1       6.770  11.900  21.283  0.00  0.00     0.046 C 
HETATM    2  C   UNL     1       5.972  11.257  22.252  0.00  0.00     0.038 C 
HETATM    3  C   UNL     1       5.112  10.193  21.958  0.00  0.00     0.066 C 
HETATM    4  C   UNL     1       5.024   9.780  20.627  0.00  0.00     0.084 C 
HETATM    5  C   UNL     1       5.831  10.362  19.648  0.00  0.00     0.075 C 
HETATM    6  C   UNL     1       6.746  11.365  19.995  0.00  0.00     0.082 C 
ENDROOT
BRANCH   3   7
HETATM    7  C   UNL     1       4.470   9.386  23.044  0.00  0.00     0.256 C 
HETATM    8  O   UNL     1       4.875   8.228  23.172  0.00  0.00    -0.267 OA
HETATM    9  N   UNL     1       3.507   9.937  23.897  0.00  0.00    -0.348 N 
HETATM   10  C   UNL     1       3.206   9.231  25.137  0.00  0.00     0.153 C 
BRANCH   9  11
HETATM   11  C   UNL     1       2.532  10.935  23.451  0.00  0.00     0.165 C 
BRANCH  11  12
HETATM   12  C   UNL     1       2.762  12.380  23.878  0.00  0.00    -0.029 A 
HETATM   13  C   UNL     1       3.950  12.728  24.565  0.00  0.00     0.010 A 
HETATM   14  C   UNL     1       4.147  13.998  25.098  0.00  0.00     0.001 A 
HETATM   15  C   UNL     1       3.167  14.960  24.944  0.00  0.00     0.001 A 
HETATM   16  C   UNL     1       2.017  14.666  24.206  0.00  0.00     0.013 A 
HETATM   17  C   UNL     1       1.779  13.387  23.647  0.00  0.00    -0.017 A 
BRANCH  17  18
HETATM   18  C   UNL     1       0.505  13.158  22.907  0.00  0.00    -0.008 A 
HETATM   19  C   UNL     1       0.424  13.331  21.516  0.00  0.00     0.015 A 
HETATM   20  C   UNL     1      -0.793  13.204  20.843  0.00  0.00     0.020 A 
HETATM   21  C   UNL     1      -1.926  12.921  21.581  0.00  0.00     0.116 A 
HETATM   22  N   UNL     1      -1.898  12.671  22.902  0.00  0.00    -0.272 NA
HETATM   23  C   UNL     1      -0.688  12.753  23.511  0.00  0.00     0.128 A 
ENDBRANCH  17  18
ENDBRANCH  11  12
ENDBRANCH   9  11
ENDBRANCH   3   7
BRANCH   4  24
HETATM   24  O   UNL     1       4.216   8.754  20.214  0.00  0.00    -0.360 OA
HETATM   25  H   UNL     1       4.673   8.293  19.475  0.00  0.00     0.217 HD
ENDBRANCH   4  24
BRANCH   1  26
HETATM   26  C   UNL     1       7.616  13.020  21.811  0.00  0.00     0.172 A 
HETATM   27  N   UNL     1       8.842  12.949  22.434  0.00  0.00    -0.244 N 
HETATM   28  C   UNL     1       9.153  14.245  22.801  0.00  0.00     0.349 A 
HETATM   29  O   UNL     1      10.114  14.674  23.423  0.00  0.00    -0.245 OA
HETATM   30  N   UNL     1       8.128  15.026  22.289  0.00  0.00    -0.226 N 
HETATM   31  H   UNL     1       8.045  16.029  22.364  0.00  0.00     0.194 HD
HETATM   32  N   UNL     1       7.183  14.254  21.697  0.00  0.00    -0.151 NA
BRANCH  27  33
HETATM   33  C   UNL     1       9.637  11.848  22.782  0.00  0.00     0.051 C 
HETATM   34  C   UNL     1      10.629  11.329  21.931  0.00  0.00    -0.035 C 
HETATM   35  C   UNL     1      11.187  12.122  20.783  0.00  0.00     0.050 C 
HETATM   36  C   UNL     1      11.189  10.078  22.241  0.00  0.00     0.009 C 
HETATM   37  C   UNL     1      10.824   9.400  23.405  0.00  0.00     0.001 C 
HETATM   38  C   UNL     1       9.955   9.988  24.316  0.00  0.00     0.002 C 
HETATM   39  C   UNL     1       9.361  11.211  24.005  0.00  0.00     0.031 C 
ENDBRANCH  27  33
ENDBRANCH   1  26
BRANCH   6  40
HETATM   40  O   UNL     1       7.695  11.699  19.078  0.00  0.00    -0.360 OA
HETATM   41  H   UNL     1       7.593  11.166  18.273  0.00  0.00     0.217 HD
ENDBRANCH   6  40
TORSDOF 8
ENDMDL
MODEL 5
REMARK VINA RESULT:    -8.352      2.557      5.477
REMARK INTER + INTRA:         -15.603
REMARK INTER:                 -11.471
REMARK INTRA:                  -4.131
REMARK UNBOUND:                -3.833
REMARK  8 active torsions:
REMARK  status: ('A' for Active; 'I' for Inactive)
REMARK    1  A    between atoms: C_7  and  N_8 
REMARK    2  A    between atoms: C_14  and  C_15 
REMARK    3  A    between atoms: C_17  and  C_18 
REMARK       I    between atoms: C_18  and  N_20 
REMARK    4  A    between atoms: N_20  and  C_22 
REMARK    5  A    between atoms: C_22  and  C_23 
REMARK    6  A    between atoms: C_28  and  C_29 
REMARK    7  A    between atoms: C_35  and  O_36 
REMARK    8  A    between atoms: C_38  and  O_39 
ROOT
HETATM    1  C   UNL     1       6.749  13.917  22.385  0.00  0.00     0.046 C 
HETATM    2  C   UNL     1       6.274  12.952  21.472  0.00  0.00     0.038 C 
HETATM    3  C   UNL     1       7.113  12.213  20.629  0.00  0.00     0.066 C 
HETATM    4  C   UNL     1       8.482  12.481  20.680  0.00  0.00     0.084 C 
HETATM    5  C   UNL     1       8.993  13.395  21.601  0.00  0.00     0.075 C 
HETATM    6  C   UNL     1       8.133  14.052  22.493  0.00  0.00     0.082 C 
ENDROOT
BRANCH   3   7
HETATM    7  C   UNL     1       6.600  11.038  19.855  0.00  0.00     0.256 C 
HETATM    8  O   UNL     1       6.561  11.171  18.629  0.00  0.00    -0.267 OA
HETATM    9  N   UNL     1       6.239   9.842  20.486  0.00  0.00    -0.348 N 
HETATM   10  C   UNL     1       6.110   8.645  19.664  0.00  0.00     0.153 C 
BRANCH   9  11
HETATM   11  C   UNL     1       5.621   9.803  21.814  0.00  0.00     0.165 C 
BRANCH  11  12
HETATM   12  C   UNL     1       5.792   8.528  22.630  0.00  0.00    -0.029 A 
HETATM   13  C   UNL     1       4.765   7.554  22.632  0.00  0.00     0.010 A 
HETATM   14  C   UNL     1       4.806   6.440  23.466  0.00  0.00     0.001 A 
HETATM   15  C   UNL     1       5.887   6.263  24.310  0.00  0.00     0.001 A 
HETATM   16  C   UNL     1       6.949   7.170  24.275  0.00  0.00     0.013 A 
HETATM   17  C   UNL     1       6.945   8.314  23.440  0.00  0.00    -0.017 A 
BRANCH  17  18
HETATM   18  C   UNL     1       8.109   9.244  23.500  0.00  0.00    -0.008 A 
HETATM   19  C   UNL     1       9.308   8.965  22.824  0.00  0.00     0.015 A 
HETATM   20  C   UNL     1      10.422   9.793  22.959  0.00  0.00     0.020 A 
HETATM   21  C   UNL     1      10.328  10.892  23.791  0.00  0.00     0.116 A 
HETATM   22  N   UNL     1       9.187  11.253  24.404  0.00  0.00    -0.272 NA
HETATM   23  C   UNL     1       8.111  10.450  24.206  0.00  0.00     0.128 A 
ENDBRANCH  17  18
ENDBRANCH  11  12
ENDBRANCH   9  11
ENDBRANCH   3   7
BRANCH   4  24
HETATM   24  O   UNL     1       9.401  11.828  19.902  0.00  0.00    -0.360 OA
HETATM   25  H   UNL     1       9.818  12.495  19.311  0.00  0.00     0.217 HD
ENDBRANCH   4  24
BRANCH   1  26
HETATM   26  C   UNL     1       5.682  14.595  23.190  0.00  0.00     0.172 A 
HETATM   27  N   UNL     1       4.621  14.029  23.860  0.00  0.00    -0.244 N 
HETATM   28  C   UNL     1       3.888  15.085  24.368  0.00  0.00     0.349 A 
HETATM   29  O   UNL     1       2.836  15.082  24.990  0.00  0.00    -0.245 OA
HETATM   30  N   UNL     1       4.613  16.222  24.043  0.00  0.00    -0.226 N 
HETATM   31  H   UNL     1       4.368  17.174  24.273  0.00  0.00     0.194 HD
HETATM   32  N   UNL     1       5.705  15.903  23.305  0.00  0.00    -0.151 NA
BRANCH  27  33
HETATM   33  C   UNL     1       4.208  12.694  23.972  0.00  0.00     0.051 C 
HETATM   34  C   UNL     1       3.120  12.172  23.249  0.00  0.00    -0.035 C 
HETATM   35  C   UNL     1       2.571  12.862  22.031  0.00  0.00     0.050 C 
HETATM   36  C   UNL     1       2.613  10.915  23.616  0.00  0.00     0.009 C 
HETATM   37  C   UNL     1       3.221  10.165  24.624  0.00  0.00     0.001 C 
HETATM   38  C   UNL     1       4.385  10.620  25.232  0.00  0.00     0.002 C 
HETATM   39  C   UNL     1       4.878  11.884  24.906  0.00  0.00     0.031 C 
ENDBRANCH  27  33
ENDBRANCH   1  26
BRANCH   6  40
HETATM   40  O   UNL     1       8.695  14.709  23.544  0.00  0.00    -0.360 OA
HETATM   41  H   UNL     1       8.930  14.086  24.250  0.00  0.00     0.217 HD
ENDBRANCH   6  40
TORSDOF 8
ENDMDL
MODEL 6
REMARK VINA RESULT:    -8.322      2.746      5.684
REMARK INTER + INTRA:         -15.560
REMARK INTER:                 -11.524
REMARK INTRA:                  -4.037
REMARK UNBOUND:                -3.833
REMARK  8 active torsions:
REMARK  status: ('A' for Active; 'I' for Inactive)
REMARK    1  A    between atoms: C_7  and  N_8 
REMARK    2  A    between atoms: C_14  and  C_15 
REMARK    3  A    between atoms: C_17  and  C_18 
REMARK       I    between atoms: C_18  and  N_20 
REMARK    4  A    between atoms: N_20  and  C_22 
REMARK    5  A    between atoms: C_22  and  C_23 
REMARK    6  A    between atoms: C_28  and  C_29 
REMARK    7  A    between atoms: C_35  and  O_36 
REMARK    8  A    between atoms: C_38  and  O_39 
ROOT
HETATM    1  C   UNL     1       6.733  14.977  24.558  0.00  0.00     0.046 C 
HETATM    2  C   UNL     1       7.161  14.869  23.218  0.00  0.00     0.038 C 
HETATM    3  C   UNL     1       8.507  14.765  22.848  0.00  0.00     0.066 C 
HETATM    4  C   UNL     1       9.464  14.806  23.863  0.00  0.00     0.084 C 
HETATM    5  C   UNL     1       9.077  14.867  25.202  0.00  0.00     0.075 C 
HETATM    6  C   UNL     1       7.716  14.879  25.542  0.00  0.00     0.082 C 
ENDROOT
BRANCH   3   7
HETATM    7  C   UNL     1       8.904  14.412  21.447  0.00  0.00     0.256 C 
HETATM    8  O   UNL     1       9.573  15.255  20.844  0.00  0.00    -0.267 OA
HETATM    9  N   UNL     1       8.581  13.173  20.882  0.00  0.00    -0.348 N 
HETATM   10  C   UNL     1       9.302  12.758  19.684  0.00  0.00     0.153 C 
BRANCH   9  11
HETATM   11  C   UNL     1       7.331  12.469  21.179  0.00  0.00     0.165 C 
BRANCH  11  12
HETATM   12  C   UNL     1       7.426  11.179  21.983  0.00  0.00    -0.029 A 
HETATM   13  C   UNL     1       8.138  11.166  23.207  0.00  0.00     0.010 A 
HETATM   14  C   UNL     1       8.374   9.988  23.910  0.00  0.00     0.001 A 
HETATM   15  C   UNL     1       7.890   8.792  23.414  0.00  0.00     0.001 A 
HETATM   16  C   UNL     1       7.121   8.786  22.248  0.00  0.00     0.013 A 
HETATM   17  C   UNL     1       6.857   9.962  21.504  0.00  0.00    -0.017 A 
BRANCH  17  18
HETATM   18  C   UNL     1       6.057   9.849  20.251  0.00  0.00    -0.008 A 
HETATM   19  C   UNL     1       5.125   8.815  20.066  0.00  0.00     0.015 A 
HETATM   20  C   UNL     1       4.447   8.663  18.856  0.00  0.00     0.020 A 
HETATM   21  C   UNL     1       4.727   9.545  17.830  0.00  0.00     0.116 A 
HETATM   22  N   UNL     1       5.551  10.598  17.972  0.00  0.00    -0.272 NA
HETATM   23  C   UNL     1       6.151  10.742  19.180  0.00  0.00     0.128 A 
ENDBRANCH  17  18
ENDBRANCH  11  12
ENDBRANCH   9  11
ENDBRANCH   3   7
BRANCH   4  24
HETATM   24  O   UNL     1      10.811  14.719  23.626  0.00  0.00    -0.360 OA
HETATM   25  H   UNL     1      10.935  14.181  22.812  0.00  0.00     0.217 HD
ENDBRANCH   4  24
BRANCH   1  26
HETATM   26  C   UNL     1       5.248  15.081  24.734  0.00  0.00     0.172 A 
HETATM   27  N   UNL     1       4.303  14.083  24.664  0.00  0.00    -0.244 N 
HETATM   28  C   UNL     1       3.079  14.710  24.811  0.00  0.00     0.349 A 
HETATM   29  O   UNL     1       1.950  14.245  24.768  0.00  0.00    -0.245 OA
HETATM   30  N   UNL     1       3.379  16.042  25.053  0.00  0.00    -0.226 N 
HETATM   31  H   UNL     1       2.716  16.785  25.219  0.00  0.00     0.194 HD
HETATM   32  N   UNL     1       4.717  16.256  24.986  0.00  0.00    -0.151 NA
BRANCH  27  33
HETATM   33  C   UNL     1       4.426  12.713  24.388  0.00  0.00     0.051 C 
HETATM   34  C   UNL     1       3.998  12.140  23.178  0.00  0.00    -0.035 C 
HETATM   35  C   UNL     1       3.749  12.970  21.949  0.00  0.00     0.050 C 
HETATM   36  C   UNL     1       3.915  10.740  23.092  0.00  0.00     0.009 C 
HETATM   37  C   UNL     1       4.319   9.934  24.157  0.00  0.00     0.001 C 
HETATM   38  C   UNL     1       4.880  10.502  25.294  0.00  0.00     0.002 C 
HETATM   39  C   UNL     1       4.934  11.891  25.410  0.00  0.00     0.031 C 
ENDBRANCH  27  33
ENDBRANCH   1  26
BRANCH   6  40
HETATM   40  O   UNL     1       7.389  14.656  26.844  0.00  0.00    -0.360 OA
HETATM   41  H   UNL     1       7.801  13.837  27.163  0.00  0.00     0.217 HD
ENDBRANCH   6  40
TORSDOF 8
ENDMDL
MODEL 7
REMARK VINA RESULT:    -8.187      2.188      6.708
REMARK INTER + INTRA:         -15.371
REMARK INTER:                 -12.421
REMARK INTRA:                  -2.950
REMARK UNBOUND:                -3.833
REMARK  8 active torsions:
REMARK  status: ('A' for Active; 'I' for Inactive)
REMARK    1  A    between atoms: C_7  and  N_8 
REMARK    2  A    between atoms: C_14  and  C_15 
REMARK    3  A    between atoms: C_17  and  C_18 
REMARK       I    between atoms: C_18  and  N_20 
REMARK    4  A    between atoms: N_20  and  C_22 
REMARK    5  A    between atoms: C_22  and  C_23 
REMARK    6  A    between atoms: C_28  and  C_29 
REMARK    7  A    between atoms: C_35  and  O_36 
REMARK    8  A    between atoms: C_38  and  O_39 
ROOT
HETATM    1  C   UNL     1       7.904  10.835  23.374  0.00  0.00     0.046 C 
HETATM    2  C   UNL     1       8.488  11.383  24.535  0.00  0.00     0.038 C 
HETATM    3  C   UNL     1       9.702  12.079  24.530  0.00  0.00     0.066 C 
HETATM    4  C   UNL     1      10.376  12.197  23.313  0.00  0.00     0.084 C 
HETATM    5  C   UNL     1       9.809  11.707  22.137  0.00  0.00     0.075 C 
HETATM    6  C   UNL     1       8.548  11.095  22.165  0.00  0.00     0.082 C 
ENDROOT
BRANCH   3   7
HETATM    7  C   UNL     1      10.164  12.848  25.729  0.00  0.00     0.256 C 
HETATM    8  O   UNL     1      10.653  12.183  26.646  0.00  0.00    -0.267 OA
HETATM    9  N   UNL     1      10.095  14.245  25.778  0.00  0.00    -0.348 N 
HETATM   10  C   UNL     1      10.886  14.936  26.789  0.00  0.00     0.153 C 
BRANCH   9  11
HETATM   11  C   UNL     1       9.010  15.006  25.154  0.00  0.00     0.165 C 
BRANCH  11  12
HETATM   12  C   UNL     1       9.250  15.552  23.752  0.00  0.00    -0.029 A 
HETATM   13  C   UNL     1      10.546  15.983  23.380  0.00  0.00     0.010 A 
HETATM   14  C   UNL     1      10.792  16.616  22.165  0.00  0.00     0.001 A 
HETATM   15  C   UNL     1       9.748  16.820  21.281  0.00  0.00     0.001 A 
HETATM   16  C   UNL     1       8.474  16.338  21.591  0.00  0.00     0.013 A 
HETATM   17  C   UNL     1       8.183  15.688  22.815  0.00  0.00    -0.017 A 
BRANCH  17  18
HETATM   18  C   UNL     1       6.784  15.242  23.071  0.00  0.00    -0.008 A 
HETATM   19  C   UNL     1       6.241  14.122  22.421  0.00  0.00     0.015 A 
HETATM   20  C   UNL     1       4.903  13.765  22.596  0.00  0.00     0.020 A 
HETATM   21  C   UNL     1       4.114  14.551  23.413  0.00  0.00     0.116 A 
HETATM   22  N   UNL     1       4.595  15.589  24.120  0.00  0.00    -0.272 NA
HETATM   23  C   UNL     1       5.912  15.873  23.963  0.00  0.00     0.128 A 
ENDBRANCH  17  18
ENDBRANCH  11  12
ENDBRANCH   9  11
ENDBRANCH   3   7
BRANCH   4  24
HETATM   24  O   UNL     1      11.574  12.850  23.182  0.00  0.00    -0.360 OA
HETATM   25  H   UNL     1      12.132  12.607  23.955  0.00  0.00     0.217 HD
ENDBRANCH   4  24
BRANCH   1  26
HETATM   26  C   UNL     1       6.603  10.126  23.601  0.00  0.00     0.172 A 
HETATM   27  N   UNL     1       6.310   8.792  23.428  0.00  0.00    -0.244 N 
HETATM   28  C   UNL     1       4.958   8.666  23.688  0.00  0.00     0.349 A 
HETATM   29  O   UNL     1       4.234   7.684  23.615  0.00  0.00    -0.245 OA
HETATM   30  N   UNL     1       4.544   9.927  24.091  0.00  0.00    -0.226 N 
HETATM   31  H   UNL     1       3.610  10.191  24.369  0.00  0.00     0.194 HD
HETATM   32  N   UNL     1       5.566  10.817  24.016  0.00  0.00    -0.151 NA
BRANCH  27  33
HETATM   33  C   UNL     1       7.100   7.726  22.976  0.00  0.00     0.051 C 
HETATM   34  C   UNL     1       6.985   7.191  21.681  0.00  0.00    -0.035 C 
HETATM   35  C   UNL     1       6.315   7.945  20.566  0.00  0.00     0.050 C 
HETATM   36  C   UNL     1       7.616   5.968  21.402  0.00  0.00     0.009 C 
HETATM   37  C   UNL     1       8.403   5.334  22.366  0.00  0.00     0.001 C 
HETATM   38  C   UNL     1       8.634   5.942  23.594  0.00  0.00     0.002 C 
HETATM   39  C   UNL     1       7.983   7.137  23.899  0.00  0.00     0.031 C 
ENDBRANCH  27  33
ENDBRANCH   1  26
BRANCH   6  40
HETATM   40  O   UNL     1       7.920  10.890  20.975  0.00  0.00    -0.360 OA
HETATM   41  H   UNL     1       8.212  11.542  20.318  0.00  0.00     0.217 HD
ENDBRANCH   6  40
TORSDOF 8
ENDMDL
MODEL 8
REMARK VINA RESULT:    -8.067      2.137      3.890
REMARK INTER + INTRA:         -15.201
REMARK INTER:                 -12.451
REMARK INTRA:                  -2.750
REMARK UNBOUND:                -3.833
REMARK  8 active torsions:
REMARK  status: ('A' for Active; 'I' for Inactive)
REMARK    1  A    between atoms: C_7  and  N_8 
REMARK    2  A    between atoms: C_14  and  C_15 
REMARK    3  A    between atoms: C_17  and  C_18 
REMARK       I    between atoms: C_18  and  N_20 
REMARK    4  A    between atoms: N_20  and  C_22 
REMARK    5  A    between atoms: C_22  and  C_23 
REMARK    6  A    between atoms: C_28  and  C_29 
REMARK    7  A    between atoms: C_35  and  O_36 
REMARK    8  A    between atoms: C_38  and  O_39 
ROOT
HETATM    1  C   UNL     1       7.922  11.241  22.717  0.00  0.00     0.046 C 
HETATM    2  C   UNL     1       6.807  10.701  23.391  0.00  0.00     0.038 C 
HETATM    3  C   UNL     1       5.642  10.281  22.738  0.00  0.00     0.066 C 
HETATM    4  C   UNL     1       5.581  10.446  21.353  0.00  0.00     0.084 C 
HETATM    5  C   UNL     1       6.681  10.935  20.647  0.00  0.00     0.075 C 
HETATM    6  C   UNL     1       7.864  11.261  21.324  0.00  0.00     0.082 C 
ENDROOT
BRANCH   3   7
HETATM    7  C   UNL     1       4.586   9.496  23.454  0.00  0.00     0.256 C 
HETATM    8  O   UNL     1       4.847   8.312  23.675  0.00  0.00    -0.267 OA
HETATM    9  N   UNL     1       3.398  10.092  23.893  0.00  0.00    -0.348 N 
HETATM   10  C   UNL     1       2.602   9.382  24.886  0.00  0.00     0.153 C 
BRANCH   9  11
HETATM   11  C   UNL     1       2.728  11.163  23.151  0.00  0.00     0.165 C 
BRANCH  11  12
HETATM   12  C   UNL     1       2.825  12.576  23.715  0.00  0.00    -0.029 A 
HETATM   13  C   UNL     1       4.005  12.985  24.381  0.00  0.00     0.010 A 
HETATM   14  C   UNL     1       4.095  14.211  25.035  0.00  0.00     0.001 A 
HETATM   15  C   UNL     1       3.009  15.067  25.026  0.00  0.00     0.001 A 
HETATM   16  C   UNL     1       1.859  14.719  24.315  0.00  0.00     0.013 A 
HETATM   17  C   UNL     1       1.728  13.483  23.636  0.00  0.00    -0.017 A 
BRANCH  17  18
HETATM   18  C   UNL     1       0.446  13.187  22.934  0.00  0.00    -0.008 A 
HETATM   19  C   UNL     1       0.315  13.349  21.546  0.00  0.00     0.015 A 
HETATM   20  C   UNL     1      -0.912  13.157  20.910  0.00  0.00     0.020 A 
HETATM   21  C   UNL     1      -2.007  12.820  21.682  0.00  0.00     0.116 A 
HETATM   22  N   UNL     1      -1.928  12.577  23.002  0.00  0.00    -0.272 NA
HETATM   23  C   UNL     1      -0.707  12.724  23.575  0.00  0.00     0.128 A 
ENDBRANCH  17  18
ENDBRANCH  11  12
ENDBRANCH   9  11
ENDBRANCH   3   7
BRANCH   4  24
HETATM   24  O   UNL     1       4.495  10.079  20.603  0.00  0.00    -0.360 OA
HETATM   25  H   UNL     1       4.594  10.488  19.714  0.00  0.00     0.217 HD
ENDBRANCH   4  24
BRANCH   1  26
HETATM   26  C   UNL     1       9.064  11.629  23.607  0.00  0.00     0.172 A 
HETATM   27  N   UNL     1       9.565  12.886  23.862  0.00  0.00    -0.244 N 
HETATM   28  C   UNL     1      10.666  12.695  24.675  0.00  0.00     0.349 A 
HETATM   29  O   UNL     1      11.462  13.509  25.120  0.00  0.00    -0.245 OA
HETATM   30  N   UNL     1      10.700  11.332  24.930  0.00  0.00    -0.226 N 
HETATM   31  H   UNL     1      11.375  10.847  25.504  0.00  0.00     0.194 HD
HETATM   32  N   UNL     1       9.717  10.690  24.252  0.00  0.00    -0.151 NA
BRANCH  27  33
HETATM   33  C   UNL     1       9.194  14.144  23.367  0.00  0.00     0.051 C 
HETATM   34  C   UNL     1       8.132  14.891  23.906  0.00  0.00    -0.035 C 
HETATM   35  C   UNL     1       7.573  14.606  25.273  0.00  0.00     0.050 C 
HETATM   36  C   UNL     1       7.663  16.004  23.189  0.00  0.00     0.009 C 
HETATM   37  C   UNL     1       8.286  16.406  22.006  0.00  0.00     0.001 C 
HETATM   38  C   UNL     1       9.427  15.753  21.557  0.00  0.00     0.002 C 
HETATM   39  C   UNL     1       9.881  14.623  22.236  0.00  0.00     0.031 C 
ENDBRANCH  27  33
ENDBRANCH   1  26
BRANCH   6  40
HETATM   40  O   UNL     1       8.984  11.461  20.577  0.00  0.00    -0.360 OA
HETATM   41  H   UNL     1       9.584  12.082  21.022  0.00  0.00     0.217 HD
ENDBRANCH   6  40
TORSDOF 8
ENDMDL
MODEL 9
REMARK VINA RESULT:    -7.888      3.004      5.893
REMARK INTER + INTRA:         -14.950
REMARK INTER:                 -11.116
REMARK INTRA:                  -3.833
REMARK UNBOUND:                -3.833
REMARK  8 active torsions:
REMARK  status: ('A' for Active; 'I' for Inactive)
REMARK    1  A    between atoms: C_7  and  N_8 
REMARK    2  A    between atoms: C_14  and  C_15 
REMARK    3  A    between atoms: C_17  and  C_18 
REMARK       I    between atoms: C_18  and  N_20 
REMARK    4  A    between atoms: N_20  and  C_22 
REMARK    5  A    between atoms: C_22  and  C_23 
REMARK    6  A    between atoms: C_28  and  C_29 
REMARK    7  A    between atoms: C_35  and  O_36 
REMARK    8  A    between atoms: C_38  and  O_39 
ROOT
HETATM    1  C   UNL     1       6.548  13.834  22.461  0.00  0.00     0.046 C 
HETATM    2  C   UNL     1       6.037  12.897  21.537  0.00  0.00     0.038 C 
HETATM    3  C   UNL     1       6.835  12.222  20.606  0.00  0.00     0.066 C 
HETATM    4  C   UNL     1       8.197  12.527  20.577  0.00  0.00     0.084 C 
HETATM    5  C   UNL     1       8.746  13.414  21.503  0.00  0.00     0.075 C 
HETATM    6  C   UNL     1       7.932  14.004  22.481  0.00  0.00     0.082 C 
ENDROOT
BRANCH   3   7
HETATM    7  C   UNL     1       6.301  11.068  19.814  0.00  0.00     0.256 C 
HETATM    8  O   UNL     1       6.031  11.299  18.633  0.00  0.00    -0.267 OA
HETATM    9  N   UNL     1       6.170   9.792  20.372  0.00  0.00    -0.348 N 
HETATM   10  C   UNL     1       6.005   8.661  19.466  0.00  0.00     0.153 C 
BRANCH   9  11
HETATM   11  C   UNL     1       5.805   9.574  21.774  0.00  0.00     0.165 C 
BRANCH  11  12
HETATM   12  C   UNL     1       6.870   8.989  22.694  0.00  0.00    -0.029 A 
HETATM   13  C   UNL     1       7.981   9.780  23.073  0.00  0.00     0.010 A 
HETATM   14  C   UNL     1       9.049   9.253  23.794  0.00  0.00     0.001 A 
HETATM   15  C   UNL     1       9.025   7.923  24.170  0.00  0.00     0.001 A 
HETATM   16  C   UNL     1       7.907   7.140  23.874  0.00  0.00     0.013 A 
HETATM   17  C   UNL     1       6.801   7.637  23.144  0.00  0.00    -0.017 A 
BRANCH  17  18
HETATM   18  C   UNL     1       5.670   6.713  22.844  0.00  0.00    -0.008 A 
HETATM   19  C   UNL     1       4.513   6.687  23.640  0.00  0.00     0.015 A 
HETATM   20  C   UNL     1       3.499   5.757  23.409  0.00  0.00     0.020 A 
HETATM   21  C   UNL     1       3.665   4.843  22.386  0.00  0.00     0.116 A 
HETATM   22  N   UNL     1       4.714   4.867  21.544  0.00  0.00    -0.272 NA
HETATM   23  C   UNL     1       5.653   5.820  21.770  0.00  0.00     0.128 A 
ENDBRANCH  17  18
ENDBRANCH  11  12
ENDBRANCH   9  11
ENDBRANCH   3   7
BRANCH   4  24
HETATM   24  O   UNL     1       9.077  11.937  19.708  0.00  0.00    -0.360 OA
HETATM   25  H   UNL     1       9.721  11.420  20.242  0.00  0.00     0.217 HD
ENDBRANCH   4  24
BRANCH   1  26
HETATM   26  C   UNL     1       5.522  14.444  23.367  0.00  0.00     0.172 A 
HETATM   27  N   UNL     1       4.519  13.818  24.072  0.00  0.00    -0.244 N 
HETATM   28  C   UNL     1       3.799  14.828  24.681  0.00  0.00     0.349 A 
HETATM   29  O   UNL     1       2.790  14.768  25.368  0.00  0.00    -0.245 OA
HETATM   30  N   UNL     1       4.477  15.998  24.371  0.00  0.00    -0.226 N 
HETATM   31  H   UNL     1       4.229  16.930  24.668  0.00  0.00     0.194 HD
HETATM   32  N   UNL     1       5.526  15.744  23.549  0.00  0.00    -0.151 NA
BRANCH  27  33
HETATM   33  C   UNL     1       4.142  12.469  24.139  0.00  0.00     0.051 C 
HETATM   34  C   UNL     1       2.997  11.968  23.493  0.00  0.00    -0.035 C 
HETATM   35  C   UNL     1       2.320  12.717  22.380  0.00  0.00     0.050 C 
HETATM   36  C   UNL     1       2.551  10.678  23.827  0.00  0.00     0.009 C 
HETATM   37  C   UNL     1       3.268   9.883  24.722  0.00  0.00     0.001 C 
HETATM   38  C   UNL     1       4.477  10.327  25.242  0.00  0.00     0.002 C 
HETATM   39  C   UNL     1       4.914  11.619  24.951  0.00  0.00     0.031 C 
ENDBRANCH  27  33
ENDBRANCH   1  26
BRANCH   6  40
HETATM   40  O   UNL     1       8.548  14.630  23.521  0.00  0.00    -0.360 OA
HETATM   41  H   UNL     1       9.508  14.667  23.377  0.00  0.00     0.217 HD
ENDBRANCH   6  40
TORSDOF 8
ENDMDL
