MODEL 1
REMARK VINA RESULT:    -7.854      0.000      0.000
REMARK INTER + INTRA:         -12.322
REMARK INTER:                  -9.862
REMARK INTRA:                  -2.460
REMARK UNBOUND:                -1.713
REMARK  7 active torsions:
REMARK  status: ('A' for Active; 'I' for Inactive)
REMARK    1  A    between atoms: C_2  and  N_4 
REMARK    2  A    between atoms: N_4  and  S_6 
REMARK    3  A    between atoms: S_6  and  C_9 
REMARK    4  A    between atoms: C_11  and  C_12 
REMARK    5  A    between atoms: N_18  and  C_19 
REMARK    6  A    between atoms: C_26  and  O_27 
REMARK    7  A    between atoms: C_29  and  O_30 
ROOT
HETATM    1  C   UNL     1      -1.541  12.555  25.840  0.00  0.00     0.108 A 
HETATM    2  C   UNL     1      -0.590  12.628  24.811  0.00  0.00     0.046 A 
HETATM    3  C   UNL     1       0.033  13.838  24.496  0.00  0.00     0.047 A 
HETATM    4  C   UNL     1      -0.249  14.957  25.287  0.00  0.00     0.082 A 
HETATM    5  C   UNL     1      -1.224  14.902  26.285  0.00  0.00     0.075 A 
HETATM    6  C   UNL     1      -1.885  13.703  26.551  0.00  0.00     0.091 A 
ENDROOT
BRANCH   3   7
HETATM    7  C   UNL     1       1.021  13.934  23.396  0.00  0.00     0.172 A 
HETATM    8  N   UNL     1       2.302  13.827  23.638  0.00  0.00    -0.151 NA
HETATM    9  N   UNL     1       2.879  13.907  22.404  0.00  0.00    -0.226 N 
HETATM   10  H   UNL     1       3.881  13.910  22.260  0.00  0.00     0.194 HD
HETATM   11  C   UNL     1       1.922  14.128  21.413  0.00  0.00     0.349 A 
HETATM   12  O   UNL     1       2.182  14.374  20.244  0.00  0.00    -0.245 OA
HETATM   13  N   UNL     1       0.710  14.100  22.069  0.00  0.00    -0.243 N 
BRANCH  13  14
HETATM   14  C   UNL     1      -0.534  14.377  21.460  0.00  0.00     0.067 A 
HETATM   15  C   UNL     1      -0.997  15.705  21.432  0.00  0.00     0.032 A 
HETATM   16  C   UNL     1      -2.312  15.997  21.072  0.00  0.00     0.002 A 
HETATM   17  C   UNL     1      -3.181  14.969  20.723  0.00  0.00     0.002 A 
HETATM   18  C   UNL     1      -2.717  13.656  20.669  0.00  0.00     0.026 A 
HETATM   19  C   UNL     1      -1.393  13.355  21.013  0.00  0.00     0.061 A 
HETATM   20 CL   UNL     1      -0.961  11.681  21.029  0.00  0.00    -0.082 Cl
ENDBRANCH  13  14
ENDBRANCH   3   7
BRANCH   4  21
HETATM   21  O   UNL     1       0.409  16.149  25.158  0.00  0.00    -0.360 OA
HETATM   22  H   UNL     1      -0.021  16.663  24.438  0.00  0.00     0.217 HD
ENDBRANCH   4  21
BRANCH   1  23
HETATM   23  S   UNL     1      -2.229  10.946  26.201  0.00  0.00     0.246 S 
HETATM   24  O   UNL     1      -2.121  10.750  27.631  0.00  0.00    -0.206 OA
HETATM   25  O   UNL     1      -1.653   9.961  25.309  0.00  0.00    -0.206 OA
BRANCH  23  26
HETATM   26  N   UNL     1      -3.894  11.173  25.764  0.00  0.00    -0.207 NA
HETATM   27  C   UNL     1      -4.804  10.633  26.820  0.00  0.00     0.130 C 
BRANCH  26  28
HETATM   28  C   UNL     1      -4.343  10.844  24.357  0.00  0.00     0.065 C 
HETATM   29  C   UNL     1      -5.778  10.296  24.360  0.00  0.00     0.027 C 
HETATM   30  C   UNL     1      -4.348  12.063  23.429  0.00  0.00     0.027 C 
ENDBRANCH  26  28
ENDBRANCH  23  26
ENDBRANCH   1  23
BRANCH   6  31
HETATM   31  O   UNL     1      -2.796  13.672  27.560  0.00  0.00    -0.359 OA
HETATM   32  H   UNL     1      -2.631  12.910  28.140  0.00  0.00     0.217 HD
ENDBRANCH   6  31
TORSDOF 7
ENDMDL
MODEL 2
REMARK VINA RESULT:    -7.607      3.665      5.471
REMARK INTER + INTRA:         -11.988
REMARK INTER:                  -9.817
REMARK INTRA:                  -2.171
REMARK UNBOUND:                -1.713
REMARK  7 active torsions:
REMARK  status: ('A' for Active; 'I' for Inactive)
REMARK    1  A    between atoms: C_2  and  N_4 
REMARK    2  A    between atoms: N_4  and  S_6 
REMARK    3  A    between atoms: S_6  and  C_9 
REMARK    4  A    between atoms: C_11  and  C_12 
REMARK    5  A    between atoms: N_18  and  C_19 
REMARK    6  A    between atoms: C_26  and  O_27 
REMARK    7  A    between atoms: C_29  and  O_30 
ROOT
HETATM    1  C   UNL     1      -0.209   9.503  26.083  0.00  0.00     0.108 A 
HETATM    2  C   UNL     1      -1.111  10.092  25.184  0.00  0.00     0.046 A 
HETATM    3  C   UNL     1      -2.315  10.640  25.633  0.00  0.00     0.047 A 
HETATM    4  C   UNL     1      -2.562  10.665  27.010  0.00  0.00     0.082 A 
HETATM    5  C   UNL     1      -1.689  10.045  27.906  0.00  0.00     0.075 A 
HETATM    6  C   UNL     1      -0.519   9.446  27.441  0.00  0.00     0.091 A 
ENDROOT
BRANCH   3   7
HETATM    7  C   UNL     1      -3.287  11.244  24.692  0.00  0.00     0.172 A 
HETATM    8  N   UNL     1      -4.390  10.616  24.377  0.00  0.00    -0.151 NA
HETATM    9  N   UNL     1      -5.043  11.487  23.555  0.00  0.00    -0.226 N 
HETATM   10  H   UNL     1      -5.917  11.266  23.094  0.00  0.00     0.194 HD
HETATM   11  C   UNL     1      -4.281  12.634  23.327  0.00  0.00     0.349 A 
HETATM   12  O   UNL     1      -4.570  13.508  22.522  0.00  0.00    -0.245 OA
HETATM   13  N   UNL     1      -3.157  12.482  24.110  0.00  0.00    -0.243 N 
BRANCH  13  14
HETATM   14  C   UNL     1      -2.061  13.371  24.115  0.00  0.00     0.067 A 
HETATM   15  C   UNL     1      -2.066  14.452  25.015  0.00  0.00     0.032 A 
HETATM   16  C   UNL     1      -1.141  15.489  24.894  0.00  0.00     0.002 A 
HETATM   17  C   UNL     1      -0.189  15.455  23.881  0.00  0.00     0.002 A 
HETATM   18  C   UNL     1      -0.119  14.354  23.030  0.00  0.00     0.026 A 
HETATM   19  C   UNL     1      -1.034  13.300  23.154  0.00  0.00     0.061 A 
HETATM   20 CL   UNL     1      -0.932  12.046  21.969  0.00  0.00    -0.082 Cl
ENDBRANCH  13  14
ENDBRANCH   3   7
BRANCH   4  21
HETATM   21  O   UNL     1      -3.637  11.303  27.566  0.00  0.00    -0.360 OA
HETATM   22  H   UNL     1      -3.724  12.187  27.143  0.00  0.00     0.217 HD
ENDBRANCH   4  21
BRANCH   1  23
HETATM   23  S   UNL     1       1.328   8.890  25.411  0.00  0.00     0.246 S 
HETATM   24  O   UNL     1       2.395   9.460  26.206  0.00  0.00    -0.206 OA
HETATM   25  O   UNL     1       1.340   9.081  23.976  0.00  0.00    -0.206 OA
BRANCH  23  26
HETATM   26  N   UNL     1       1.197   7.190  25.736  0.00  0.00    -0.207 NA
HETATM   27  C   UNL     1       2.448   6.471  25.343  0.00  0.00     0.130 C 
BRANCH  26  28
HETATM   28  C   UNL     1      -0.066   6.455  25.346  0.00  0.00     0.065 C 
HETATM   29  C   UNL     1       0.122   5.724  24.008  0.00  0.00     0.027 C 
HETATM   30  C   UNL     1      -0.479   5.389  26.366  0.00  0.00     0.027 C 
ENDBRANCH  26  28
ENDBRANCH  23  26
ENDBRANCH   1  23
BRANCH   6  31
HETATM   31  O   UNL     1       0.332   8.891  28.345  0.00  0.00    -0.359 OA
HETATM   32  H   UNL     1       1.175   9.374  28.356  0.00  0.00     0.217 HD
ENDBRANCH   6  31
TORSDOF 7
ENDMDL
MODEL 3
REMARK VINA RESULT:    -7.475      1.562      1.960
REMARK INTER + INTRA:         -11.809
REMARK INTER:                  -9.972
REMARK INTRA:                  -1.837
REMARK UNBOUND:                -1.713
REMARK  7 active torsions:
REMARK  status: ('A' for Active; 'I' for Inactive)
REMARK    1  A    between atoms: C_2  and  N_4 
REMARK    2  A    between atoms: N_4  and  S_6 
REMARK    3  A    between atoms: S_6  and  C_9 
REMARK    4  A    between atoms: C_11  and  C_12 
REMARK    5  A    between atoms: N_18  and  C_19 
REMARK    6  A    between atoms: C_26  and  O_27 
REMARK    7  A    between atoms: C_29  and  O_30 
ROOT
HETATM    1  C   UNL     1      -2.145  13.354  25.360  0.00  0.00     0.108 A 
HETATM    2  C   UNL     1      -1.193  13.473  24.337  0.00  0.00     0.046 A 
HETATM    3  C   UNL     1      -0.097  14.327  24.474  0.00  0.00     0.047 A 
HETATM    4  C   UNL     1       0.077  14.997  25.690  0.00  0.00     0.082 A 
HETATM    5  C   UNL     1      -0.888  14.916  26.696  0.00  0.00     0.075 A 
HETATM    6  C   UNL     1      -2.010  14.107  26.525  0.00  0.00     0.091 A 
ENDROOT
BRANCH   3   7
HETATM    7  C   UNL     1       0.904  14.481  23.392  0.00  0.00     0.172 A 
HETATM    8  N   UNL     1       2.183  14.501  23.662  0.00  0.00    -0.151 NA
HETATM    9  N   UNL     1       2.778  14.595  22.439  0.00  0.00    -0.226 N 
HETATM   10  H   UNL     1       3.779  14.687  22.314  0.00  0.00     0.194 HD
HETATM   11  C   UNL     1       1.829  14.694  21.421  0.00  0.00     0.349 A 
HETATM   12  O   UNL     1       2.091  14.927  20.250  0.00  0.00    -0.245 OA
HETATM   13  N   UNL     1       0.609  14.575  22.053  0.00  0.00    -0.243 N 
BRANCH  13  14
HETATM   14  C   UNL     1      -0.640  14.715  21.411  0.00  0.00     0.067 A 
HETATM   15  C   UNL     1      -1.222  15.993  21.328  0.00  0.00     0.032 A 
HETATM   16  C   UNL     1      -2.551  16.150  20.932  0.00  0.00     0.002 A 
HETATM   17  C   UNL     1      -3.313  15.035  20.601  0.00  0.00     0.002 A 
HETATM   18  C   UNL     1      -2.729  13.770  20.602  0.00  0.00     0.026 A 
HETATM   19  C   UNL     1      -1.391  13.604  20.982  0.00  0.00     0.061 A 
HETATM   20 CL   UNL     1      -0.808  11.979  21.064  0.00  0.00    -0.082 Cl
ENDBRANCH  13  14
ENDBRANCH   3   7
BRANCH   4  21
HETATM   21  O   UNL     1       1.185  15.743  25.983  0.00  0.00    -0.360 OA
HETATM   22  H   UNL     1       1.320  16.393  25.257  0.00  0.00     0.217 HD
ENDBRANCH   4  21
BRANCH   1  23
HETATM   23  S   UNL     1      -3.472  12.185  25.106  0.00  0.00     0.246 S 
HETATM   24  O   UNL     1      -3.543  11.928  23.684  0.00  0.00    -0.206 OA
HETATM   25  O   UNL     1      -4.658  12.640  25.801  0.00  0.00    -0.206 OA
BRANCH  23  26
HETATM   26  N   UNL     1      -2.862  10.781  25.927  0.00  0.00    -0.207 NA
HETATM   27  C   UNL     1      -3.444  10.667  27.299  0.00  0.00     0.130 C 
BRANCH  26  28
HETATM   28  C   UNL     1      -1.382  10.476  25.873  0.00  0.00     0.065 C 
HETATM   29  C   UNL     1      -0.964   9.608  27.071  0.00  0.00     0.027 C 
HETATM   30  C   UNL     1      -0.974   9.701  24.616  0.00  0.00     0.027 C 
ENDBRANCH  26  28
ENDBRANCH  23  26
ENDBRANCH   1  23
BRANCH   6  31
HETATM   31  O   UNL     1      -2.907  14.014  27.543  0.00  0.00    -0.359 OA
HETATM   32  H   UNL     1      -3.049  14.886  27.948  0.00  0.00     0.217 HD
ENDBRANCH   6  31
TORSDOF 7
ENDMDL
MODEL 4
REMARK VINA RESULT:    -7.382      3.658      5.043
REMARK INTER + INTRA:         -11.685
REMARK INTER:                  -9.734
REMARK INTRA:                  -1.951
REMARK UNBOUND:                -1.713
REMARK  7 active torsions:
REMARK  status: ('A' for Active; 'I' for Inactive)
REMARK    1  A    between atoms: C_2  and  N_4 
REMARK    2  A    between atoms: N_4  and  S_6 
REMARK    3  A    between atoms: S_6  and  C_9 
REMARK    4  A    between atoms: C_11  and  C_12 
REMARK    5  A    between atoms: N_18  and  C_19 
REMARK    6  A    between atoms: C_26  and  O_27 
REMARK    7  A    between atoms: C_29  and  O_30 
ROOT
HETATM    1  C   UNL     1      -0.245   9.695  26.098  0.00  0.00     0.108 A 
HETATM    2  C   UNL     1      -0.516  10.261  24.843  0.00  0.00     0.046 A 
HETATM    3  C   UNL     1      -1.737  10.890  24.590  0.00  0.00     0.047 A 
HETATM    4  C   UNL     1      -2.650  11.019  25.642  0.00  0.00     0.082 A 
HETATM    5  C   UNL     1      -2.404  10.423  26.881  0.00  0.00     0.075 A 
HETATM    6  C   UNL     1      -1.207   9.744  27.105  0.00  0.00     0.091 A 
ENDROOT
BRANCH   3   7
HETATM    7  C   UNL     1      -2.045  11.471  23.262  0.00  0.00     0.172 A 
HETATM    8  N   UNL     1      -2.922  10.906  22.473  0.00  0.00    -0.151 NA
HETATM    9  N   UNL     1      -2.979  11.738  21.394  0.00  0.00    -0.226 N 
HETATM   10  H   UNL     1      -3.537  11.542  20.572  0.00  0.00     0.194 HD
HETATM   11  C   UNL     1      -2.072  12.790  21.518  0.00  0.00     0.349 A 
HETATM   12  O   UNL     1      -1.823  13.598  20.634  0.00  0.00    -0.245 OA
HETATM   13  N   UNL     1      -1.500  12.628  22.762  0.00  0.00    -0.243 N 
BRANCH  13  14
HETATM   14  C   UNL     1      -0.447  13.422  23.266  0.00  0.00     0.067 A 
HETATM   15  C   UNL     1       0.873  13.128  22.879  0.00  0.00     0.032 A 
HETATM   16  C   UNL     1       1.958  13.713  23.533  0.00  0.00     0.002 A 
HETATM   17  C   UNL     1       1.741  14.609  24.573  0.00  0.00     0.002 A 
HETATM   18  C   UNL     1       0.440  14.972  24.917  0.00  0.00     0.026 A 
HETATM   19  C   UNL     1      -0.656  14.402  24.256  0.00  0.00     0.061 A 
HETATM   20 CL   UNL     1      -2.223  14.832  24.846  0.00  0.00    -0.082 Cl
ENDBRANCH  13  14
ENDBRANCH   3   7
BRANCH   4  21
HETATM   21  O   UNL     1      -3.808  11.740  25.544  0.00  0.00    -0.360 OA
HETATM   22  H   UNL     1      -4.223  11.779  26.435  0.00  0.00     0.217 HD
ENDBRANCH   4  21
BRANCH   1  23
HETATM   23  S   UNL     1       1.371   8.972  26.333  0.00  0.00     0.246 S 
HETATM   24  O   UNL     1       1.511   8.696  27.747  0.00  0.00    -0.206 OA
HETATM   25  O   UNL     1       2.369   9.787  25.673  0.00  0.00    -0.206 OA
BRANCH  23  26
HETATM   26  N   UNL     1       1.217   7.480  25.458  0.00  0.00    -0.207 NA
HETATM   27  C   UNL     1       1.902   7.564  24.131  0.00  0.00     0.130 C 
BRANCH  26  28
HETATM   28  C   UNL     1      -0.129   6.791  25.398  0.00  0.00     0.065 C 
HETATM   29  C   UNL     1      -0.175   5.794  24.230  0.00  0.00     0.027 C 
HETATM   30  C   UNL     1      -0.449   5.990  26.664  0.00  0.00     0.027 C 
ENDBRANCH  26  28
ENDBRANCH  23  26
ENDBRANCH   1  23
BRANCH   6  31
HETATM   31  O   UNL     1      -0.980   9.214  28.337  0.00  0.00    -0.359 OA
HETATM   32  H   UNL     1      -0.520   9.858  28.901  0.00  0.00     0.217 HD
ENDBRANCH   6  31
TORSDOF 7
ENDMDL
MODEL 5
REMARK VINA RESULT:    -7.368      2.133      5.397
REMARK INTER + INTRA:         -11.666
REMARK INTER:                  -9.960
REMARK INTRA:                  -1.706
REMARK UNBOUND:                -1.713
REMARK  7 active torsions:
REMARK  status: ('A' for Active; 'I' for Inactive)
REMARK    1  A    between atoms: C_2  and  N_4 
REMARK    2  A    between atoms: N_4  and  S_6 
REMARK    3  A    between atoms: S_6  and  C_9 
REMARK    4  A    between atoms: C_11  and  C_12 
REMARK    5  A    between atoms: N_18  and  C_19 
REMARK    6  A    between atoms: C_26  and  O_27 
REMARK    7  A    between atoms: C_29  and  O_30 
ROOT
HETATM    1  C   UNL     1      -0.061  14.657  25.318  0.00  0.00     0.108 A 
HETATM    2  C   UNL     1      -1.090  13.739  25.057  0.00  0.00     0.046 A 
HETATM    3  C   UNL     1      -2.073  13.473  26.013  0.00  0.00     0.047 A 
HETATM    4  C   UNL     1      -2.057  14.206  27.205  0.00  0.00     0.082 A 
HETATM    5  C   UNL     1      -1.014  15.090  27.489  0.00  0.00     0.075 A 
HETATM    6  C   UNL     1      -0.004  15.303  26.552  0.00  0.00     0.091 A 
ENDROOT
BRANCH   3   7
HETATM    7  C   UNL     1      -3.151  12.489  25.760  0.00  0.00     0.172 A 
HETATM    8  N   UNL     1      -3.525  11.653  26.693  0.00  0.00    -0.151 NA
HETATM    9  N   UNL     1      -4.554  10.961  26.124  0.00  0.00    -0.226 N 
HETATM   10  H   UNL     1      -5.027  10.193  26.583  0.00  0.00     0.194 HD
HETATM   11  C   UNL     1      -4.756  11.355  24.801  0.00  0.00     0.349 A 
HETATM   12  O   UNL     1      -5.521  10.801  24.023  0.00  0.00    -0.245 OA
HETATM   13  N   UNL     1      -3.863  12.383  24.589  0.00  0.00    -0.243 N 
BRANCH  13  14
HETATM   14  C   UNL     1      -3.656  13.019  23.346  0.00  0.00     0.067 A 
HETATM   15  C   UNL     1      -4.359  14.203  23.062  0.00  0.00     0.032 A 
HETATM   16  C   UNL     1      -4.382  14.730  21.770  0.00  0.00     0.002 A 
HETATM   17  C   UNL     1      -3.693  14.090  20.747  0.00  0.00     0.002 A 
HETATM   18  C   UNL     1      -2.926  12.960  21.027  0.00  0.00     0.026 A 
HETATM   19  C   UNL     1      -2.883  12.433  22.324  0.00  0.00     0.061 A 
HETATM   20 CL   UNL     1      -2.001  10.961  22.531  0.00  0.00    -0.082 Cl
ENDBRANCH  13  14
ENDBRANCH   3   7
BRANCH   4  21
HETATM   21  O   UNL     1      -3.048  14.130  28.144  0.00  0.00    -0.360 OA
HETATM   22  H   UNL     1      -3.914  14.108  27.678  0.00  0.00     0.217 HD
ENDBRANCH   4  21
BRANCH   1  23
HETATM   23  S   UNL     1       1.105  14.968  24.002  0.00  0.00     0.246 S 
HETATM   24  O   UNL     1       2.430  14.840  24.571  0.00  0.00    -0.206 OA
HETATM   25  O   UNL     1       0.749  16.193  23.317  0.00  0.00    -0.206 OA
BRANCH  23  26
HETATM   26  N   UNL     1       0.794  13.634  22.936  0.00  0.00    -0.207 NA
HETATM   27  C   UNL     1       1.356  12.364  23.488  0.00  0.00     0.130 C 
BRANCH  26  28
HETATM   28  C   UNL     1       1.028  13.801  21.451  0.00  0.00     0.065 C 
HETATM   29  C   UNL     1       2.497  14.156  21.171  0.00  0.00     0.027 C 
HETATM   30  C   UNL     1       0.731  12.530  20.650  0.00  0.00     0.027 C 
ENDBRANCH  26  28
ENDBRANCH  23  26
ENDBRANCH   1  23
BRANCH   6  31
HETATM   31  O   UNL     1       0.973  16.204  26.841  0.00  0.00    -0.359 OA
HETATM   32  H   UNL     1       1.399  15.980  27.685  0.00  0.00     0.217 HD
ENDBRANCH   6  31
TORSDOF 7
ENDMDL
MODEL 6
REMARK VINA RESULT:    -7.359      3.509      5.534
REMARK INTER + INTRA:         -11.653
REMARK INTER:                  -9.427
REMARK INTRA:                  -2.226
REMARK UNBOUND:                -1.713
REMARK  7 active torsions:
REMARK  status: ('A' for Active; 'I' for Inactive)
REMARK    1  A    between atoms: C_2  and  N_4 
REMARK    2  A    between atoms: N_4  and  S_6 
REMARK    3  A    between atoms: S_6  and  C_9 
REMARK    4  A    between atoms: C_11  and  C_12 
REMARK    5  A    between atoms: N_18  and  C_19 
REMARK    6  A    between atoms: C_26  and  O_27 
REMARK    7  A    between atoms: C_29  and  O_30 
ROOT
HETATM    1  C   UNL     1      -1.012   9.446  25.675  0.00  0.00     0.108 A 
HETATM    2  C   UNL     1      -1.610  10.250  24.693  0.00  0.00     0.046 A 
HETATM    3  C   UNL     1      -2.544  11.228  25.040  0.00  0.00     0.047 A 
HETATM    4  C   UNL     1      -2.808  11.446  26.396  0.00  0.00     0.082 A 
HETATM    5  C   UNL     1      -2.249  10.622  27.376  0.00  0.00     0.075 A 
HETATM    6  C   UNL     1      -1.364   9.608  27.014  0.00  0.00     0.091 A 
ENDROOT
BRANCH   3   7
HETATM    7  C   UNL     1      -3.200  12.069  24.011  0.00  0.00     0.172 A 
HETATM    8  N   UNL     1      -4.450  11.868  23.681  0.00  0.00    -0.151 NA
HETATM    9  N   UNL     1      -4.713  12.848  22.769  0.00  0.00    -0.226 N 
HETATM   10  H   UNL     1      -5.595  12.927  22.279  0.00  0.00     0.194 HD
HETATM   11  C   UNL     1      -3.575  13.611  22.506  0.00  0.00     0.349 A 
HETATM   12  O   UNL     1      -3.499  14.462  21.631  0.00  0.00    -0.245 OA
HETATM   13  N   UNL     1      -2.606  13.120  23.355  0.00  0.00    -0.243 N 
BRANCH  13  14
HETATM   14  C   UNL     1      -1.259  13.541  23.359  0.00  0.00     0.067 A 
HETATM   15  C   UNL     1      -0.370  12.985  22.422  0.00  0.00     0.032 A 
HETATM   16  C   UNL     1       1.007  13.175  22.541  0.00  0.00     0.002 A 
HETATM   17  C   UNL     1       1.515  13.935  23.589  0.00  0.00     0.002 A 
HETATM   18  C   UNL     1       0.644  14.559  24.479  0.00  0.00     0.026 A 
HETATM   19  C   UNL     1      -0.741  14.387  24.359  0.00  0.00     0.061 A 
HETATM   20 CL   UNL     1      -1.719  15.106  25.590  0.00  0.00    -0.082 Cl
ENDBRANCH  13  14
ENDBRANCH   3   7
BRANCH   4  21
HETATM   21  O   UNL     1      -3.593  12.469  26.852  0.00  0.00    -0.360 OA
HETATM   22  H   UNL     1      -3.007  13.162  27.231  0.00  0.00     0.217 HD
ENDBRANCH   4  21
BRANCH   1  23
HETATM   23  S   UNL     1       0.216   8.270  25.129  0.00  0.00     0.246 S 
HETATM   24  O   UNL     1       0.402   8.480  23.709  0.00  0.00    -0.206 OA
HETATM   25  O   UNL     1      -0.132   6.947  25.605  0.00  0.00    -0.206 OA
BRANCH  23  26
HETATM   26  N   UNL     1       1.623   8.809  25.991  0.00  0.00    -0.207 NA
HETATM   27  C   UNL     1       2.079  10.143  25.493  0.00  0.00     0.130 C 
BRANCH  26  28
HETATM   28  C   UNL     1       2.758   7.839  26.239  0.00  0.00     0.065 C 
HETATM   29  C   UNL     1       3.684   7.765  25.015  0.00  0.00     0.027 C 
HETATM   30  C   UNL     1       3.640   8.239  27.425  0.00  0.00     0.027 C 
ENDBRANCH  26  28
ENDBRANCH  23  26
ENDBRANCH   1  23
BRANCH   6  31
HETATM   31  O   UNL     1      -0.802   8.854  27.996  0.00  0.00    -0.359 OA
HETATM   32  H   UNL     1      -1.408   8.780  28.753  0.00  0.00     0.217 HD
ENDBRANCH   6  31
TORSDOF 7
ENDMDL
MODEL 7
REMARK VINA RESULT:    -7.334      2.715      5.775
REMARK INTER + INTRA:         -11.619
REMARK INTER:                  -9.533
REMARK INTRA:                  -2.086
REMARK UNBOUND:                -1.713
REMARK  7 active torsions:
REMARK  status: ('A' for Active; 'I' for Inactive)
REMARK    1  A    between atoms: C_2  and  N_4 
REMARK    2  A    between atoms: N_4  and  S_6 
REMARK    3  A    between atoms: S_6  and  C_9 
REMARK    4  A    between atoms: C_11  and  C_12 
REMARK    5  A    between atoms: N_18  and  C_19 
REMARK    6  A    between atoms: C_26  and  O_27 
REMARK    7  A    between atoms: C_29  and  O_30 
ROOT
HETATM    1  C   UNL     1      -0.139  14.963  23.166  0.00  0.00     0.108 A 
HETATM    2  C   UNL     1      -1.011  14.415  24.119  0.00  0.00     0.046 A 
HETATM    3  C   UNL     1      -0.763  14.564  25.486  0.00  0.00     0.047 A 
HETATM    4  C   UNL     1       0.329  15.345  25.883  0.00  0.00     0.082 A 
HETATM    5  C   UNL     1       1.223  15.857  24.941  0.00  0.00     0.075 A 
HETATM    6  C   UNL     1       0.999  15.651  23.580  0.00  0.00     0.091 A 
ENDROOT
BRANCH   3   7
HETATM    7  C   UNL     1      -1.662  13.971  26.503  0.00  0.00     0.172 A 
HETATM    8  N   UNL     1      -2.095  14.685  27.509  0.00  0.00    -0.151 NA
HETATM    9  N   UNL     1      -2.924  13.837  28.184  0.00  0.00    -0.226 N 
HETATM   10  H   UNL     1      -3.378  14.082  29.055  0.00  0.00     0.194 HD
HETATM   11  C   UNL     1      -2.936  12.571  27.599  0.00  0.00     0.349 A 
HETATM   12  O   UNL     1      -3.485  11.591  28.081  0.00  0.00    -0.245 OA
HETATM   13  N   UNL     1      -2.142  12.684  26.477  0.00  0.00    -0.243 N 
BRANCH  13  14
HETATM   14  C   UNL     1      -1.796  11.608  25.632  0.00  0.00     0.067 A 
HETATM   15  C   UNL     1      -0.574  10.943  25.843  0.00  0.00     0.032 A 
HETATM   16  C   UNL     1      -0.073  10.049  24.897  0.00  0.00     0.002 A 
HETATM   17  C   UNL     1      -0.790   9.795  23.733  0.00  0.00     0.002 A 
HETATM   18  C   UNL     1      -2.039  10.385  23.545  0.00  0.00     0.026 A 
HETATM   19  C   UNL     1      -2.558  11.272  24.496  0.00  0.00     0.061 A 
HETATM   20 CL   UNL     1      -4.057  12.037  24.102  0.00  0.00    -0.082 Cl
ENDBRANCH  13  14
ENDBRANCH   3   7
BRANCH   4  21
HETATM   21  O   UNL     1       0.579  15.673  27.186  0.00  0.00    -0.360 OA
HETATM   22  H   UNL     1       0.168  14.989  27.761  0.00  0.00     0.217 HD
ENDBRANCH   4  21
BRANCH   1  23
HETATM   23  S   UNL     1      -0.585  14.768  21.447  0.00  0.00     0.246 S 
HETATM   24  O   UNL     1       0.213  13.681  20.923  0.00  0.00    -0.206 OA
HETATM   25  O   UNL     1      -0.544  16.055  20.786  0.00  0.00    -0.206 OA
BRANCH  23  26
HETATM   26  N   UNL     1      -2.244  14.270  21.572  0.00  0.00    -0.207 NA
HETATM   27  C   UNL     1      -2.466  12.964  20.879  0.00  0.00     0.130 C 
BRANCH  26  28
HETATM   28  C   UNL     1      -3.342  15.279  21.319  0.00  0.00     0.065 C 
HETATM   29  C   UNL     1      -3.755  15.272  19.839  0.00  0.00     0.027 C 
HETATM   30  C   UNL     1      -4.615  14.995  22.124  0.00  0.00     0.027 C 
ENDBRANCH  26  28
ENDBRANCH  23  26
ENDBRANCH   1  23
BRANCH   6  31
HETATM   31  O   UNL     1       1.865  16.203  22.688  0.00  0.00    -0.359 OA
HETATM   32  H   UNL     1       2.482  16.801  23.142  0.00  0.00     0.217 HD
ENDBRANCH   6  31
TORSDOF 7
ENDMDL
MODEL 8
REMARK VINA RESULT:    -7.186      3.891      5.405
REMARK INTER + INTRA:         -11.419
REMARK INTER:                  -9.344
REMARK INTRA:                  -2.076
REMARK UNBOUND:                -1.713
REMARK  7 active torsions:
REMARK  status: ('A' for Active; 'I' for Inactive)
REMARK    1  A    between atoms: C_2  and  N_4 
REMARK    2  A    between atoms: N_4  and  S_6 
REMARK    3  A    between atoms: S_6  and  C_9 
REMARK    4  A    between atoms: C_11  and  C_12 
REMARK    5  A    between atoms: N_18  and  C_19 
REMARK    6  A    between atoms: C_26  and  O_27 
REMARK    7  A    between atoms: C_29  and  O_30 
ROOT
HETATM    1  C   UNL     1       0.671   9.021  24.851  0.00  0.00     0.108 A 
HETATM    2  C   UNL     1      -0.407   9.510  24.098  0.00  0.00     0.046 A 
HETATM    3  C   UNL     1      -0.435  10.837  23.664  0.00  0.00     0.047 A 
HETATM    4  C   UNL     1       0.678  11.645  23.925  0.00  0.00     0.082 A 
HETATM    5  C   UNL     1       1.735  11.178  24.708  0.00  0.00     0.075 A 
HETATM    6  C   UNL     1       1.724   9.869  25.188  0.00  0.00     0.091 A 
ENDROOT
BRANCH   3   7
HETATM    7  C   UNL     1      -1.578  11.373  22.888  0.00  0.00     0.172 A 
HETATM    8  N   UNL     1      -1.811  10.959  21.670  0.00  0.00    -0.151 NA
HETATM    9  N   UNL     1      -2.950  11.617  21.310  0.00  0.00    -0.226 N 
HETATM   10  H   UNL     1      -3.362  11.548  20.388  0.00  0.00     0.194 HD
HETATM   11  C   UNL     1      -3.369  12.489  22.315  0.00  0.00     0.349 A 
HETATM   12  O   UNL     1      -4.280  13.297  22.196  0.00  0.00    -0.245 OA
HETATM   13  N   UNL     1      -2.489  12.288  23.357  0.00  0.00    -0.243 N 
BRANCH  13  14
HETATM   14  C   UNL     1      -2.482  13.038  24.553  0.00  0.00     0.067 A 
HETATM   15  C   UNL     1      -2.017  14.365  24.522  0.00  0.00     0.032 A 
HETATM   16  C   UNL     1      -1.757  15.061  25.702  0.00  0.00     0.002 A 
HETATM   17  C   UNL     1      -1.970  14.447  26.931  0.00  0.00     0.002 A 
HETATM   18  C   UNL     1      -2.506  13.161  26.982  0.00  0.00     0.026 A 
HETATM   19  C   UNL     1      -2.785  12.460  25.801  0.00  0.00     0.061 A 
HETATM   20 CL   UNL     1      -3.331  10.830  25.982  0.00  0.00    -0.082 Cl
ENDBRANCH  13  14
ENDBRANCH   3   7
BRANCH   4  21
HETATM   21  O   UNL     1       0.818  12.910  23.424  0.00  0.00    -0.360 OA
HETATM   22  H   UNL     1       1.395  12.865  22.629  0.00  0.00     0.217 HD
ENDBRANCH   4  21
BRANCH   1  23
HETATM   23  S   UNL     1       0.633   7.292  25.299  0.00  0.00     0.246 S 
HETATM   24  O   UNL     1       1.859   6.700  24.807  0.00  0.00    -0.206 OA
HETATM   25  O   UNL     1      -0.635   6.715  24.904  0.00  0.00    -0.206 OA
BRANCH  23  26
HETATM   26  N   UNL     1       0.678   7.380  27.032  0.00  0.00    -0.207 NA
HETATM   27  C   UNL     1       1.491   6.264  27.605  0.00  0.00     0.130 C 
BRANCH  26  28
HETATM   28  C   UNL     1      -0.601   7.645  27.795  0.00  0.00     0.065 C 
HETATM   29  C   UNL     1      -0.601   6.890  29.133  0.00  0.00     0.027 C 
HETATM   30  C   UNL     1      -0.801   9.125  28.133  0.00  0.00     0.027 C 
ENDBRANCH  26  28
ENDBRANCH  23  26
ENDBRANCH   1  23
BRANCH   6  31
HETATM   31  O   UNL     1       2.790   9.431  25.910  0.00  0.00    -0.359 OA
HETATM   32  H   UNL     1       3.159   8.625  25.511  0.00  0.00     0.217 HD
ENDBRANCH   6  31
TORSDOF 7
ENDMDL
MODEL 9
REMARK VINA RESULT:    -7.159      3.666      6.702
REMARK INTER + INTRA:         -11.383
REMARK INTER:                  -9.670
REMARK INTRA:                  -1.713
REMARK UNBOUND:                -1.713
REMARK  7 active torsions:
REMARK  status: ('A' for Active; 'I' for Inactive)
REMARK    1  A    between atoms: C_2  and  N_4 
REMARK    2  A    between atoms: N_4  and  S_6 
REMARK    3  A    between atoms: S_6  and  C_9 
REMARK    4  A    between atoms: C_11  and  C_12 
REMARK    5  A    between atoms: N_18  and  C_19 
REMARK    6  A    between atoms: C_26  and  O_27 
REMARK    7  A    between atoms: C_29  and  O_30 
ROOT
HETATM    1  C   UNL     1      -2.641  11.520  23.928  0.00  0.00     0.108 A 
HETATM    2  C   UNL     1      -1.859  10.904  24.917  0.00  0.00     0.046 A 
HETATM    3  C   UNL     1      -2.391  10.619  26.177  0.00  0.00     0.047 A 
HETATM    4  C   UNL     1      -3.747  10.881  26.401  0.00  0.00     0.082 A 
HETATM    5  C   UNL     1      -4.520  11.531  25.436  0.00  0.00     0.075 A 
HETATM    6  C   UNL     1      -3.962  11.867  24.204  0.00  0.00     0.091 A 
ENDROOT
BRANCH   3   7
HETATM    7  C   UNL     1      -1.570   9.991  27.238  0.00  0.00     0.172 A 
HETATM    8  N   UNL     1      -1.693  10.363  28.486  0.00  0.00    -0.151 NA
HETATM    9  N   UNL     1      -0.839   9.542  29.161  0.00  0.00    -0.226 N 
HETATM   10  H   UNL     1      -0.665   9.619  30.156  0.00  0.00     0.194 HD
HETATM   11  C   UNL     1      -0.148   8.702  28.287  0.00  0.00     0.349 A 
HETATM   12  O   UNL     1       0.773   7.967  28.615  0.00  0.00    -0.245 OA
HETATM   13  N   UNL     1      -0.666   8.975  27.039  0.00  0.00    -0.243 N 
BRANCH  13  14
HETATM   14  C   UNL     1      -0.186   8.417  25.835  0.00  0.00     0.067 A 
HETATM   15  C   UNL     1      -0.661   7.156  25.432  0.00  0.00     0.032 A 
HETATM   16  C   UNL     1      -0.043   6.456  24.396  0.00  0.00     0.002 A 
HETATM   17  C   UNL     1       1.049   7.010  23.737  0.00  0.00     0.002 A 
HETATM   18  C   UNL     1       1.482   8.293  24.070  0.00  0.00     0.026 A 
HETATM   19  C   UNL     1       0.858   9.010  25.099  0.00  0.00     0.061 A 
HETATM   20 CL   UNL     1       1.556  10.538  25.508  0.00  0.00    -0.082 Cl
ENDBRANCH  13  14
ENDBRANCH   3   7
BRANCH   4  21
HETATM   21  O   UNL     1      -4.403  10.510  27.543  0.00  0.00    -0.360 OA
HETATM   22  H   UNL     1      -5.243  10.069  27.286  0.00  0.00     0.217 HD
ENDBRANCH   4  21
BRANCH   1  23
HETATM   23  S   UNL     1      -1.880  11.782  22.334  0.00  0.00     0.246 S 
HETATM   24  O   UNL     1      -2.584  10.946  21.385  0.00  0.00    -0.206 OA
HETATM   25  O   UNL     1      -0.443  11.652  22.455  0.00  0.00    -0.206 OA
BRANCH  23  26
HETATM   26  N   UNL     1      -2.255  13.451  22.038  0.00  0.00    -0.207 NA
HETATM   27  C   UNL     1      -2.727  13.654  20.635  0.00  0.00     0.130 C 
BRANCH  26  28
HETATM   28  C   UNL     1      -1.297  14.522  22.512  0.00  0.00     0.065 C 
HETATM   29  C   UNL     1      -1.348  15.744  21.582  0.00  0.00     0.027 C 
HETATM   30  C   UNL     1      -1.620  15.036  23.918  0.00  0.00     0.027 C 
ENDBRANCH  26  28
ENDBRANCH  23  26
ENDBRANCH   1  23
BRANCH   6  31
HETATM   31  O   UNL     1      -4.755  12.458  23.270  0.00  0.00    -0.359 OA
HETATM   32  H   UNL     1      -5.577  11.952  23.157  0.00  0.00     0.217 HD
ENDBRANCH   6  31
TORSDOF 7
ENDMDL
