MODEL 1
REMARK VINA RESULT:    -8.194      0.000      0.000
REMARK INTER + INTRA:          -9.405
REMARK INTER:                  -8.980
REMARK INTRA:                  -0.425
REMARK UNBOUND:                -0.492
REMARK  2 active torsions:
REMARK  status: ('A' for Active; 'I' for Inactive)
REMARK    1  A    between atoms: C_7  and  N_8 
REMARK    2  A    between atoms: C_10  and  C_11 
REMARK       I    between atoms: C_11  and  N_13 
ROOT
HETATM    1  C   UNL     1       3.752  14.574  23.529  0.00  0.00     0.048 C 
HETATM    2  C   UNL     1       5.192  14.500  23.119  0.00  0.00    -0.061 A 
HETATM    3  C   UNL     1       5.996  15.632  23.076  0.00  0.00     0.009 A 
HETATM    4  C   UNL     1       7.340  15.517  22.707  0.00  0.00     0.033 A 
HETATM    5  C   UNL     1       7.919  14.297  22.370  0.00  0.00     0.073 A 
HETATM    6  N   UNL     1       9.215  14.282  22.044  0.00  0.00    -0.218 NA
HETATM    7  C   UNL     1       9.773  13.115  21.727  0.00  0.00     0.200 A 
HETATM    8  N   UNL     1       9.135  11.952  21.665  0.00  0.00    -0.212 NA
HETATM    9  C   UNL     1       7.820  11.983  21.985  0.00  0.00     0.140 A 
HETATM   10  C   UNL     1       7.128  13.148  22.382  0.00  0.00     0.028 A 
HETATM   11  C   UNL     1       5.763  13.267  22.781  0.00  0.00     0.023 A 
ENDROOT
BRANCH   9  12
HETATM   12  C   UNL     1       7.071  10.695  21.779  0.00  0.00     0.274 C 
HETATM   13  O   UNL     1       7.181   9.800  22.623  0.00  0.00    -0.266 OA
HETATM   14  N   UNL     1       6.259  10.487  20.674  0.00  0.00    -0.338 N 
HETATM   15  C   UNL     1       5.912  11.392  19.568  0.00  0.00     0.165 A 
HETATM   16  C   UNL     1       5.648   9.171  20.525  0.00  0.00     0.165 A 
HETATM   17  C   UNL     1       5.037  10.539  18.686  0.00  0.00    -0.032 A 
HETATM   18  C   UNL     1       4.401  10.855  17.496  0.00  0.00     0.011 A 
HETATM   19  C   UNL     1       4.897   9.262  19.243  0.00  0.00    -0.031 A 
HETATM   20  C   UNL     1       3.631   9.867  16.867  0.00  0.00     0.019 A 
HETATM   21  C   UNL     1       3.510   8.587  17.432  0.00  0.00     0.011 A 
HETATM   22 BR   UNL     1       2.474   7.265  16.561  0.00  0.00    -0.051 Br
HETATM   23  C   UNL     1       4.144   8.273  18.632  0.00  0.00     0.028 A 
ENDBRANCH   9  12
BRANCH   7  24
HETATM   24  N   UNL     1      11.112  13.140  21.401  0.00  0.00    -0.271 NA
HETATM   25  H   UNL     1      11.272  13.846  20.696  0.00  0.00     0.127 HD
HETATM   26  H   UNL     1      11.441  12.207  21.194  0.00  0.00     0.127 HD
ENDBRANCH   7  24
TORSDOF 2
ENDMDL
MODEL 2
REMARK VINA RESULT:    -7.974      3.818      5.183
REMARK INTER + INTRA:          -9.166
REMARK INTER:                  -8.841
REMARK INTRA:                  -0.324
REMARK UNBOUND:                -0.492
REMARK  2 active torsions:
REMARK  status: ('A' for Active; 'I' for Inactive)
REMARK    1  A    between atoms: C_7  and  N_8 
REMARK    2  A    between atoms: C_10  and  C_11 
REMARK       I    between atoms: C_11  and  N_13 
ROOT
HETATM    1  C   UNL     1       9.351  16.923  21.246  0.00  0.00     0.048 C 
HETATM    2  C   UNL     1       9.810  16.126  22.430  0.00  0.00    -0.061 A 
HETATM    3  C   UNL     1      10.915  16.506  23.181  0.00  0.00     0.009 A 
HETATM    4  C   UNL     1      11.298  15.746  24.290  0.00  0.00     0.033 A 
HETATM    5  C   UNL     1      10.611  14.601  24.681  0.00  0.00     0.073 A 
HETATM    6  N   UNL     1      11.041  13.946  25.764  0.00  0.00    -0.218 NA
HETATM    7  C   UNL     1      10.382  12.853  26.145  0.00  0.00     0.200 A 
HETATM    8  N   UNL     1       9.344  12.324  25.509  0.00  0.00    -0.212 NA
HETATM    9  C   UNL     1       8.925  12.989  24.407  0.00  0.00     0.140 A 
HETATM   10  C   UNL     1       9.512  14.183  23.932  0.00  0.00     0.028 A 
HETATM   11  C   UNL     1       9.111  14.975  22.814  0.00  0.00     0.023 A 
ENDROOT
BRANCH   9  12
HETATM   12  C   UNL     1       7.841  12.314  23.612  0.00  0.00     0.274 C 
HETATM   13  O   UNL     1       8.099  11.258  23.028  0.00  0.00    -0.266 OA
HETATM   14  N   UNL     1       6.561  12.843  23.521  0.00  0.00    -0.338 N 
HETATM   15  C   UNL     1       5.980  14.036  24.154  0.00  0.00     0.165 A 
HETATM   16  C   UNL     1       5.611  12.157  22.654  0.00  0.00     0.165 A 
HETATM   17  C   UNL     1       4.577  14.067  23.607  0.00  0.00    -0.032 A 
HETATM   18  C   UNL     1       3.548  14.963  23.854  0.00  0.00     0.011 A 
HETATM   19  C   UNL     1       4.377  12.986  22.740  0.00  0.00    -0.031 A 
HETATM   20  C   UNL     1       2.319  14.763  23.211  0.00  0.00     0.019 A 
HETATM   21  C   UNL     1       2.138  13.680  22.335  0.00  0.00     0.011 A 
HETATM   22 BR   UNL     1       0.474  13.436  21.469  0.00  0.00    -0.051 Br
HETATM   23  C   UNL     1       3.170  12.777  22.093  0.00  0.00     0.028 A 
ENDBRANCH   9  12
BRANCH   7  24
HETATM   24  N   UNL     1      10.854  12.208  27.268  0.00  0.00    -0.271 NA
HETATM   25  H   UNL     1      11.835  12.000  27.148  0.00  0.00     0.127 HD
HETATM   26  H   UNL     1      10.250  11.433  27.508  0.00  0.00     0.127 HD
ENDBRANCH   7  24
TORSDOF 2
ENDMDL
MODEL 3
REMARK VINA RESULT:    -7.970      3.464      5.378
REMARK INTER + INTRA:          -9.161
REMARK INTER:                  -8.695
REMARK INTRA:                  -0.466
REMARK UNBOUND:                -0.492
REMARK  2 active torsions:
REMARK  status: ('A' for Active; 'I' for Inactive)
REMARK    1  A    between atoms: C_7  and  N_8 
REMARK    2  A    between atoms: C_10  and  C_11 
REMARK       I    between atoms: C_11  and  N_13 
ROOT
HETATM    1  C   UNL     1       7.701  15.523  22.729  0.00  0.00     0.048 C 
HETATM    2  C   UNL     1       6.269  15.196  23.026  0.00  0.00    -0.061 A 
HETATM    3  C   UNL     1       5.529  15.932  23.944  0.00  0.00     0.009 A 
HETATM    4  C   UNL     1       4.189  15.607  24.177  0.00  0.00     0.033 A 
HETATM    5  C   UNL     1       3.552  14.557  23.523  0.00  0.00     0.073 A 
HETATM    6  N   UNL     1       2.264  14.330  23.799  0.00  0.00    -0.218 NA
HETATM    7  C   UNL     1       1.649  13.331  23.169  0.00  0.00     0.200 A 
HETATM    8  N   UNL     1       2.224  12.500  22.308  0.00  0.00    -0.212 NA
HETATM    9  C   UNL     1       3.531  12.732  22.046  0.00  0.00     0.140 A 
HETATM   10  C   UNL     1       4.277  13.788  22.614  0.00  0.00     0.028 A 
HETATM   11  C   UNL     1       5.638  14.138  22.362  0.00  0.00     0.023 A 
ENDROOT
BRANCH   9  12
HETATM   12  C   UNL     1       4.213  11.709  21.179  0.00  0.00     0.274 C 
HETATM   13  O   UNL     1       4.094  11.791  19.953  0.00  0.00    -0.266 OA
HETATM   14  N   UNL     1       4.972  10.680  21.718  0.00  0.00    -0.338 N 
HETATM   15  C   UNL     1       5.317  10.389  23.117  0.00  0.00     0.165 A 
HETATM   16  C   UNL     1       5.516   9.691  20.796  0.00  0.00     0.165 A 
HETATM   17  C   UNL     1       6.119   9.117  23.017  0.00  0.00    -0.032 A 
HETATM   18  C   UNL     1       6.723   8.368  24.015  0.00  0.00     0.011 A 
HETATM   19  C   UNL     1       6.222   8.721  21.678  0.00  0.00    -0.031 A 
HETATM   20  C   UNL     1       7.423   7.210  23.649  0.00  0.00     0.019 A 
HETATM   21  C   UNL     1       7.507   6.820  22.303  0.00  0.00     0.011 A 
HETATM   22 BR   UNL     1       8.449   5.247  21.834  0.00  0.00    -0.051 Br
HETATM   23  C   UNL     1       6.906   7.577  21.301  0.00  0.00     0.028 A 
ENDBRANCH   9  12
BRANCH   7  24
HETATM   24  N   UNL     1       0.321  13.130  23.479  0.00  0.00    -0.271 NA
HETATM   25  H   UNL     1       0.166  12.152  23.674  0.00  0.00     0.127 HD
HETATM   26  H   UNL     1      -0.271  13.554  22.776  0.00  0.00     0.127 HD
ENDBRANCH   7  24
TORSDOF 2
ENDMDL
MODEL 4
REMARK VINA RESULT:    -7.931      3.033      4.147
REMARK INTER + INTRA:          -9.119
REMARK INTER:                  -8.780
REMARK INTRA:                  -0.339
REMARK UNBOUND:                -0.492
REMARK  2 active torsions:
REMARK  status: ('A' for Active; 'I' for Inactive)
REMARK    1  A    between atoms: C_7  and  N_8 
REMARK    2  A    between atoms: C_10  and  C_11 
REMARK       I    between atoms: C_11  and  N_13 
ROOT
HETATM    1  C   UNL     1       2.564  14.215  24.011  0.00  0.00     0.048 C 
HETATM    2  C   UNL     1       3.940  14.637  23.591  0.00  0.00    -0.061 A 
HETATM    3  C   UNL     1       4.422  15.913  23.856  0.00  0.00     0.009 A 
HETATM    4  C   UNL     1       5.718  16.262  23.466  0.00  0.00     0.033 A 
HETATM    5  C   UNL     1       6.563  15.373  22.808  0.00  0.00     0.073 A 
HETATM    6  N   UNL     1       7.792  15.791  22.487  0.00  0.00    -0.218 NA
HETATM    7  C   UNL     1       8.605  14.940  21.864  0.00  0.00     0.200 A 
HETATM    8  N   UNL     1       8.283  13.707  21.489  0.00  0.00    -0.212 NA
HETATM    9  C   UNL     1       7.032  13.301  21.809  0.00  0.00     0.140 A 
HETATM   10  C   UNL     1       6.096  14.093  22.510  0.00  0.00     0.028 A 
HETATM   11  C   UNL     1       4.780  13.735  22.930  0.00  0.00     0.023 A 
ENDROOT
BRANCH   9  12
HETATM   12  C   UNL     1       6.625  11.959  21.263  0.00  0.00     0.274 C 
HETATM   13  O   UNL     1       5.859  11.917  20.296  0.00  0.00    -0.266 OA
HETATM   14  N   UNL     1       7.087  10.772  21.813  0.00  0.00    -0.338 N 
HETATM   15  C   UNL     1       8.036  10.543  22.913  0.00  0.00     0.165 A 
HETATM   16  C   UNL     1       6.561   9.528  21.266  0.00  0.00     0.165 A 
HETATM   17  C   UNL     1       8.063   9.041  23.036  0.00  0.00    -0.032 A 
HETATM   18  C   UNL     1       8.788   8.235  23.900  0.00  0.00     0.011 A 
HETATM   19  C   UNL     1       7.207   8.467  22.088  0.00  0.00    -0.031 A 
HETATM   20  C   UNL     1       8.633   6.845  23.805  0.00  0.00     0.019 A 
HETATM   21  C   UNL     1       7.761   6.286  22.857  0.00  0.00     0.011 A 
HETATM   22 BR   UNL     1       7.559   4.407  22.754  0.00  0.00    -0.051 Br
HETATM   23  C   UNL     1       7.038   7.097  21.985  0.00  0.00     0.028 A 
ENDBRANCH   9  12
BRANCH   7  24
HETATM   24  N   UNL     1       9.864  15.406  21.553  0.00  0.00    -0.271 NA
HETATM   25  H   UNL     1       9.783  16.256  21.013  0.00  0.00     0.127 HD
HETATM   26  H   UNL     1      10.424  14.664  21.153  0.00  0.00     0.127 HD
ENDBRANCH   7  24
TORSDOF 2
ENDMDL
MODEL 5
REMARK VINA RESULT:    -7.847      3.906      5.503
REMARK INTER + INTRA:          -9.028
REMARK INTER:                  -8.552
REMARK INTRA:                  -0.476
REMARK UNBOUND:                -0.492
REMARK  2 active torsions:
REMARK  status: ('A' for Active; 'I' for Inactive)
REMARK    1  A    between atoms: C_7  and  N_8 
REMARK    2  A    between atoms: C_10  and  C_11 
REMARK       I    between atoms: C_11  and  N_13 
ROOT
HETATM    1  C   UNL     1      10.523  12.160  26.041  0.00  0.00     0.048 C 
HETATM    2  C   UNL     1      10.503  13.366  25.150  0.00  0.00    -0.061 A 
HETATM    3  C   UNL     1      11.354  14.443  25.364  0.00  0.00     0.009 A 
HETATM    4  C   UNL     1      11.318  15.541  24.498  0.00  0.00     0.033 A 
HETATM    5  C   UNL     1      10.449  15.606  23.414  0.00  0.00     0.073 A 
HETATM    6  N   UNL     1      10.496  16.689  22.632  0.00  0.00    -0.218 NA
HETATM    7  C   UNL     1       9.670  16.752  21.589  0.00  0.00     0.200 A 
HETATM    8  N   UNL     1       8.760  15.837  21.276  0.00  0.00    -0.212 NA
HETATM    9  C   UNL     1       8.714  14.751  22.083  0.00  0.00     0.140 A 
HETATM   10  C   UNL     1       9.568  14.549  23.190  0.00  0.00     0.028 A 
HETATM   11  C   UNL     1       9.624  13.421  24.062  0.00  0.00     0.023 A 
ENDROOT
BRANCH   9  12
HETATM   12  C   UNL     1       7.592  13.785  21.811  0.00  0.00     0.274 C 
HETATM   13  O   UNL     1       7.815  12.797  21.106  0.00  0.00    -0.266 OA
HETATM   14  N   UNL     1       6.320  13.973  22.331  0.00  0.00    -0.338 N 
HETATM   15  C   UNL     1       5.808  15.016  23.233  0.00  0.00     0.165 A 
HETATM   16  C   UNL     1       5.285  13.027  21.934  0.00  0.00     0.165 A 
HETATM   17  C   UNL     1       4.349  14.668  23.369  0.00  0.00    -0.032 A 
HETATM   18  C   UNL     1       3.353  15.291  24.105  0.00  0.00     0.011 A 
HETATM   19  C   UNL     1       4.057  13.525  22.613  0.00  0.00    -0.031 A 
HETATM   20  C   UNL     1       2.058  14.757  24.063  0.00  0.00     0.019 A 
HETATM   21  C   UNL     1       1.779  13.618  23.290  0.00  0.00     0.011 A 
HETATM   22 BR   UNL     1       0.020  12.920  23.240  0.00  0.00    -0.051 Br
HETATM   23  C   UNL     1       2.781  12.988  22.557  0.00  0.00     0.028 A 
ENDBRANCH   9  12
BRANCH   7  24
HETATM   24  N   UNL     1       9.751  17.882  20.804  0.00  0.00    -0.271 NA
HETATM   25  H   UNL     1      10.702  18.002  20.487  0.00  0.00     0.127 HD
HETATM   26  H   UNL     1       9.325  18.669  21.276  0.00  0.00     0.127 HD
ENDBRANCH   7  24
TORSDOF 2
ENDMDL
MODEL 6
REMARK VINA RESULT:    -7.703      2.028      2.515
REMARK INTER + INTRA:          -8.871
REMARK INTER:                  -8.386
REMARK INTRA:                  -0.485
REMARK UNBOUND:                -0.492
REMARK  2 active torsions:
REMARK  status: ('A' for Active; 'I' for Inactive)
REMARK    1  A    between atoms: C_7  and  N_8 
REMARK    2  A    between atoms: C_10  and  C_11 
REMARK       I    between atoms: C_11  and  N_13 
ROOT
HETATM    1  C   UNL     1       4.683  16.006  23.488  0.00  0.00     0.048 C 
HETATM    2  C   UNL     1       5.911  15.286  23.961  0.00  0.00    -0.061 A 
HETATM    3  C   UNL     1       6.421  15.479  25.239  0.00  0.00     0.009 A 
HETATM    4  C   UNL     1       7.556  14.773  25.648  0.00  0.00     0.033 A 
HETATM    5  C   UNL     1       8.214  13.872  24.816  0.00  0.00     0.073 A 
HETATM    6  N   UNL     1       9.283  13.232  25.299  0.00  0.00    -0.218 NA
HETATM    7  C   UNL     1       9.911  12.363  24.508  0.00  0.00     0.200 A 
HETATM    8  N   UNL     1       9.587  12.104  23.246  0.00  0.00    -0.212 NA
HETATM    9  C   UNL     1       8.510  12.768  22.765  0.00  0.00     0.140 A 
HETATM   10  C   UNL     1       7.736  13.676  23.521  0.00  0.00     0.028 A 
HETATM   11  C   UNL     1       6.564  14.382  23.115  0.00  0.00     0.023 A 
ENDROOT
BRANCH   9  12
HETATM   12  C   UNL     1       8.231  12.578  21.299  0.00  0.00     0.274 C 
HETATM   13  O   UNL     1       8.777  13.329  20.486  0.00  0.00    -0.266 OA
HETATM   14  N   UNL     1       7.381  11.584  20.837  0.00  0.00    -0.338 N 
HETATM   15  C   UNL     1       6.659  10.535  21.573  0.00  0.00     0.165 A 
HETATM   16  C   UNL     1       7.110  11.542  19.405  0.00  0.00     0.165 A 
HETATM   17  C   UNL     1       5.887   9.825  20.492  0.00  0.00    -0.032 A 
HETATM   18  C   UNL     1       5.030   8.739  20.581  0.00  0.00     0.011 A 
HETATM   19  C   UNL     1       6.148  10.416  19.249  0.00  0.00    -0.031 A 
HETATM   20  C   UNL     1       4.432   8.261  19.407  0.00  0.00     0.019 A 
HETATM   21  C   UNL     1       4.696   8.873  18.170  0.00  0.00     0.011 A 
HETATM   22 BR   UNL     1       3.869   8.218  16.599  0.00  0.00    -0.051 Br
HETATM   23  C   UNL     1       5.562   9.960  18.081  0.00  0.00     0.028 A 
ENDBRANCH   9  12
BRANCH   7  24
HETATM   24  N   UNL     1      11.006  11.721  25.043  0.00  0.00    -0.271 NA
HETATM   25  H   UNL     1      11.841  12.247  24.829  0.00  0.00     0.127 HD
HETATM   26  H   UNL     1      11.003  10.744  24.781  0.00  0.00     0.127 HD
ENDBRANCH   7  24
TORSDOF 2
ENDMDL
MODEL 7
REMARK VINA RESULT:    -7.634      4.501      5.434
REMARK INTER + INTRA:          -8.795
REMARK INTER:                  -8.391
REMARK INTRA:                  -0.405
REMARK UNBOUND:                -0.492
REMARK  2 active torsions:
REMARK  status: ('A' for Active; 'I' for Inactive)
REMARK    1  A    between atoms: C_7  and  N_8 
REMARK    2  A    between atoms: C_10  and  C_11 
REMARK       I    between atoms: C_11  and  N_13 
ROOT
HETATM    1  C   UNL     1       9.805  15.538  27.450  0.00  0.00     0.048 C 
HETATM    2  C   UNL     1      10.194  15.092  26.072  0.00  0.00    -0.061 A 
HETATM    3  C   UNL     1      11.278  15.648  25.406  0.00  0.00     0.009 A 
HETATM    4  C   UNL     1      11.621  15.191  24.130  0.00  0.00     0.033 A 
HETATM    5  C   UNL     1      10.907  14.186  23.482  0.00  0.00     0.073 A 
HETATM    6  N   UNL     1      11.317  13.803  22.269  0.00  0.00    -0.218 NA
HETATM    7  C   UNL     1      10.641  12.837  21.650  0.00  0.00     0.200 A 
HETATM    8  N   UNL     1       9.552  12.240  22.122  0.00  0.00    -0.212 NA
HETATM    9  C   UNL     1       9.140  12.646  23.345  0.00  0.00     0.140 A 
HETATM   10  C   UNL     1       9.800  13.626  24.119  0.00  0.00     0.028 A 
HETATM   11  C   UNL     1       9.469  14.081  25.431  0.00  0.00     0.023 A 
ENDROOT
BRANCH   9  12
HETATM   12  C   UNL     1       7.832  12.071  23.815  0.00  0.00     0.274 C 
HETATM   13  O   UNL     1       7.811  10.915  24.249  0.00  0.00    -0.266 OA
HETATM   14  N   UNL     1       6.653  12.801  23.778  0.00  0.00    -0.338 N 
HETATM   15  C   UNL     1       6.413  14.194  23.371  0.00  0.00     0.165 A 
HETATM   16  C   UNL     1       5.427  12.120  24.174  0.00  0.00     0.165 A 
HETATM   17  C   UNL     1       4.922  14.345  23.524  0.00  0.00    -0.032 A 
HETATM   18  C   UNL     1       4.114  15.448  23.294  0.00  0.00     0.011 A 
HETATM   19  C   UNL     1       4.364  13.145  23.980  0.00  0.00    -0.031 A 
HETATM   20  C   UNL     1       2.736  15.325  23.519  0.00  0.00     0.019 A 
HETATM   21  C   UNL     1       2.190  14.111  23.966  0.00  0.00     0.011 A 
HETATM   22 BR   UNL     1       0.325  13.964  24.254  0.00  0.00    -0.051 Br
HETATM   23  C   UNL     1       3.004  13.006  24.203  0.00  0.00     0.028 A 
ENDBRANCH   9  12
BRANCH   7  24
HETATM   24  N   UNL     1      11.096  12.467  20.403  0.00  0.00    -0.271 NA
HETATM   25  H   UNL     1      12.024  12.075  20.487  0.00  0.00     0.127 HD
HETATM   26  H   UNL     1      10.980  13.227  19.746  0.00  0.00     0.127 HD
ENDBRANCH   7  24
TORSDOF 2
ENDMDL
MODEL 8
REMARK VINA RESULT:    -7.556      2.605      3.695
REMARK INTER + INTRA:          -8.711
REMARK INTER:                  -8.220
REMARK INTRA:                  -0.491
REMARK UNBOUND:                -0.492
REMARK  2 active torsions:
REMARK  status: ('A' for Active; 'I' for Inactive)
REMARK    1  A    between atoms: C_7  and  N_8 
REMARK    2  A    between atoms: C_10  and  C_11 
REMARK       I    between atoms: C_11  and  N_13 
ROOT
HETATM    1  C   UNL     1       2.504  14.493  24.162  0.00  0.00     0.048 C 
HETATM    2  C   UNL     1       3.904  14.708  23.668  0.00  0.00    -0.061 A 
HETATM    3  C   UNL     1       4.610  15.868  23.962  0.00  0.00     0.009 A 
HETATM    4  C   UNL     1       5.920  16.022  23.500  0.00  0.00     0.033 A 
HETATM    5  C   UNL     1       6.561  15.048  22.741  0.00  0.00     0.073 A 
HETATM    6  N   UNL     1       7.821  15.275  22.355  0.00  0.00    -0.218 NA
HETATM    7  C   UNL     1       8.439  14.342  21.634  0.00  0.00     0.200 A 
HETATM    8  N   UNL     1       7.891  13.205  21.221  0.00  0.00    -0.212 NA
HETATM    9  C   UNL     1       6.612  12.992  21.607  0.00  0.00     0.140 A 
HETATM   10  C   UNL     1       5.868  13.883  22.411  0.00  0.00     0.028 A 
HETATM   11  C   UNL     1       4.538  13.722  22.905  0.00  0.00     0.023 A 
ENDROOT
BRANCH   9  12
HETATM   12  C   UNL     1       5.951  11.772  21.024  0.00  0.00     0.274 C 
HETATM   13  O   UNL     1       5.412  11.858  19.917  0.00  0.00    -0.266 OA
HETATM   14  N   UNL     1       5.933  10.557  21.693  0.00  0.00    -0.338 N 
HETATM   15  C   UNL     1       6.539  10.172  22.976  0.00  0.00     0.165 A 
HETATM   16  C   UNL     1       5.190   9.463  21.081  0.00  0.00     0.165 A 
HETATM   17  C   UNL     1       6.108   8.738  23.144  0.00  0.00    -0.032 A 
HETATM   18  C   UNL     1       6.384   7.842  24.165  0.00  0.00     0.011 A 
HETATM   19  C   UNL     1       5.327   8.342  22.051  0.00  0.00    -0.031 A 
HETATM   20  C   UNL     1       5.857   6.546  24.078  0.00  0.00     0.019 A 
HETATM   21  C   UNL     1       5.066   6.168  22.981  0.00  0.00     0.011 A 
HETATM   22 BR   UNL     1       4.355   4.417  22.890  0.00  0.00    -0.051 Br
HETATM   23  C   UNL     1       4.794   7.067  21.953  0.00  0.00     0.028 A 
ENDBRANCH   9  12
BRANCH   7  24
HETATM   24  N   UNL     1       9.738  14.612  21.259  0.00  0.00    -0.271 NA
HETATM   25  H   UNL     1       9.923  15.598  21.377  0.00  0.00     0.127 HD
HETATM   26  H   UNL     1       9.929  14.217  20.347  0.00  0.00     0.127 HD
ENDBRANCH   7  24
TORSDOF 2
ENDMDL
MODEL 9
REMARK VINA RESULT:    -7.494      1.929      3.247
REMARK INTER + INTRA:          -8.643
REMARK INTER:                  -8.151
REMARK INTRA:                  -0.492
REMARK UNBOUND:                -0.492
REMARK  2 active torsions:
REMARK  status: ('A' for Active; 'I' for Inactive)
REMARK    1  A    between atoms: C_7  and  N_8 
REMARK    2  A    between atoms: C_10  and  C_11 
REMARK       I    between atoms: C_11  and  N_13 
ROOT
HETATM    1  C   UNL     1      10.360  12.537  20.419  0.00  0.00     0.048 C 
HETATM    2  C   UNL     1       9.209  13.232  21.084  0.00  0.00    -0.061 A 
HETATM    3  C   UNL     1       9.316  14.538  21.544  0.00  0.00     0.009 A 
HETATM    4  C   UNL     1       8.214  15.158  22.141  0.00  0.00     0.033 A 
HETATM    5  C   UNL     1       6.992  14.512  22.301  0.00  0.00     0.073 A 
HETATM    6  N   UNL     1       5.989  15.189  22.869  0.00  0.00    -0.218 NA
HETATM    7  C   UNL     1       4.816  14.575  23.017  0.00  0.00     0.200 A 
HETATM    8  N   UNL     1       4.563  13.315  22.683  0.00  0.00    -0.212 NA
HETATM    9  C   UNL     1       5.590  12.636  22.120  0.00  0.00     0.140 A 
HETATM   10  C   UNL     1       6.864  13.192  21.868  0.00  0.00     0.028 A 
HETATM   11  C   UNL     1       7.985  12.572  21.239  0.00  0.00     0.023 A 
ENDROOT
BRANCH   9  12
HETATM   12  C   UNL     1       5.344  11.173  21.871  0.00  0.00     0.274 C 
HETATM   13  O   UNL     1       5.435  10.384  22.816  0.00  0.00    -0.266 OA
HETATM   14  N   UNL     1       5.016  10.688  20.613  0.00  0.00    -0.338 N 
HETATM   15  C   UNL     1       4.790  11.405  19.349  0.00  0.00     0.165 A 
HETATM   16  C   UNL     1       4.885   9.244  20.462  0.00  0.00     0.165 A 
HETATM   17  C   UNL     1       4.518  10.295  18.367  0.00  0.00    -0.032 A 
HETATM   18  C   UNL     1       4.226  10.360  17.014  0.00  0.00     0.011 A 
HETATM   19  C   UNL     1       4.581   9.056  19.017  0.00  0.00    -0.031 A 
HETATM   20  C   UNL     1       4.008   9.162  16.319  0.00  0.00     0.019 A 
HETATM   21  C   UNL     1       4.086   7.927  16.983  0.00  0.00     0.011 A 
HETATM   22 BR   UNL     1       3.799   6.321  16.023  0.00  0.00    -0.051 Br
HETATM   23  C   UNL     1       4.373   7.863  18.344  0.00  0.00     0.028 A 
ENDBRANCH   9  12
BRANCH   7  24
HETATM   24  N   UNL     1       3.807  15.307  23.604  0.00  0.00    -0.271 NA
HETATM   25  H   UNL     1       3.784  16.232  23.198  0.00  0.00     0.127 HD
HETATM   26  H   UNL     1       3.873  15.253  24.611  0.00  0.00     0.127 HD
ENDBRANCH   7  24
TORSDOF 2
ENDMDL
