MODEL 1
REMARK VINA RESULT:    -6.250      0.000      0.000
REMARK INTER + INTRA:          -9.128
REMARK INTER:                  -8.015
REMARK INTRA:                  -1.112
REMARK UNBOUND:                -1.051
REMARK  5 active torsions:
REMARK  status: ('A' for Active; 'I' for Inactive)
REMARK    1  A    between atoms: N8_1  and  C24_2 
REMARK    2  A    between atoms: N8_1  and  C7_8 
REMARK    3  A    between atoms: C2_13  and  N1_14 
REMARK    4  A    between atoms: N1_14  and  C17_15 
REMARK    5  A    between atoms: C14_16  and  C13_19 
ROOT
ATOM      1  C17 FTA A   1       7.929  12.599  11.406  1.00  0.00     0.142 C 
ATOM      2  C14 FTA A   1       8.101  12.654  10.070  1.00  0.00     0.158 C 
ATOM      3  C18 FTA A   1       8.815  13.763   9.474  1.00  0.00     0.069 C 
ATOM      4  N21 FTA A   1       9.358  14.743   9.129  1.00  0.00    -0.197 NA
ENDROOT
BRANCH   2   5
ATOM      5  C13 FTA A   1       7.567  11.565   9.221  1.00  0.00     0.197 A 
ATOM      6  N15 FTA A   1       7.149  10.310   9.660  1.00  0.00    -0.093 NA
ATOM      7  N19 FTA A   1       6.767   9.582   8.541  1.00  0.00    -0.231 N 
ATOM      8  N20 FTA A   1       6.944  10.363   7.408  1.00  0.00    -0.017 NA
ATOM      9  H15 FTA A   1       6.410   8.616   8.550  1.00  0.00     0.200 HD
ATOM     10  N16 FTA A   1       7.430  11.597   7.829  1.00  0.00    -0.090 NA
ENDBRANCH   2   5
BRANCH   1  11
ATOM     11  N1  FTA A   1       6.686  12.432  11.896  1.00  0.00    -0.389 N 
ATOM     12  H11 FTA A   1       6.507  11.591  12.464  1.00  0.00     0.159 HD
BRANCH  11  13
ATOM     13  C2  FTA A   1       5.602  13.329  11.691  1.00  0.00     0.028 A 
ATOM     14  C4  FTA A   1       5.622  14.638  12.166  1.00  0.00     0.031 A 
ATOM     15  C6  FTA A   1       4.441  15.391  12.134  1.00  0.00     0.031 A 
ATOM     16  C7  FTA A   1       3.245  14.872  11.644  1.00  0.00     0.032 A 
ATOM     17  C5  FTA A   1       3.248  13.579  11.153  1.00  0.00     0.031 A 
ATOM     18  C3  FTA A   1       4.405  12.811  11.188  1.00  0.00     0.031 A 
BRANCH  16  19
ATOM     19  N8  FTA A   1       2.000  15.535  11.793  1.00  0.00    -0.356 N 
ATOM     20  H1  FTA A   1       1.897  16.454  11.338  1.00  0.00     0.166 HD
BRANCH  19  21
ATOM     21  C24 FTA A   1       0.879  15.035  12.522  1.00  0.00     0.032 A 
ATOM     22  C26 FTA A   1       0.768  15.207  13.881  1.00  0.00     0.029 A 
ATOM     23  C28 FTA A   1      -0.249  14.553  14.551  1.00  0.00     0.002 A 
ATOM     24  C30 FTA A   1      -1.175  13.757  13.899  1.00  0.00     0.000 A 
ATOM     25  C29 FTA A   1      -1.098  13.607  12.540  1.00  0.00     0.002 A 
ATOM     26  C27 FTA A   1      -0.067  14.266  11.860  1.00  0.00     0.029 A 
ENDBRANCH  19  21
ENDBRANCH  16  19
ENDBRANCH  11  13
ENDBRANCH   1  11
TORSDOF 5
ENDMDL
MODEL 2
REMARK VINA RESULT:    -6.142      1.378      1.771
REMARK INTER + INTRA:          -8.989
REMARK INTER:                  -7.948
REMARK INTRA:                  -1.041
REMARK UNBOUND:                -1.051
REMARK  5 active torsions:
REMARK  status: ('A' for Active; 'I' for Inactive)
REMARK    1  A    between atoms: N8_1  and  C24_2 
REMARK    2  A    between atoms: N8_1  and  C7_8 
REMARK    3  A    between atoms: C2_13  and  N1_14 
REMARK    4  A    between atoms: N1_14  and  C17_15 
REMARK    5  A    between atoms: C14_16  and  C13_19 
ROOT
ATOM      1  C17 FTA A   1       7.095  13.779  10.889  1.00  0.00     0.142 C 
ATOM      2  C14 FTA A   1       7.884  12.861  10.297  1.00  0.00     0.158 C 
ATOM      3  C18 FTA A   1       9.323  13.011  10.327  1.00  0.00     0.069 C 
ATOM      4  N21 FTA A   1      10.460  13.292  10.379  1.00  0.00    -0.197 NA
ENDROOT
BRANCH   2   5
ATOM      5  C13 FTA A   1       7.268  11.690   9.632  1.00  0.00     0.197 A 
ATOM      6  N15 FTA A   1       7.608  10.354   9.836  1.00  0.00    -0.093 NA
ATOM      7  N19 FTA A   1       6.823   9.588   8.984  1.00  0.00    -0.231 N 
ATOM      8  N20 FTA A   1       5.998  10.427   8.249  1.00  0.00    -0.017 NA
ATOM      9  H15 FTA A   1       6.849   8.561   8.910  1.00  0.00     0.200 HD
ATOM     10  N16 FTA A   1       6.264  11.730   8.657  1.00  0.00    -0.090 NA
ENDBRANCH   2   5
BRANCH   1  11
ATOM     11  N1  FTA A   1       6.102  14.342  10.174  1.00  0.00    -0.389 N 
ATOM     12  H11 FTA A   1       6.341  14.723   9.247  1.00  0.00     0.159 HD
BRANCH  11  13
ATOM     13  C2  FTA A   1       4.750  14.451  10.600  1.00  0.00     0.028 A 
ATOM     14  C4  FTA A   1       4.185  15.670  10.966  1.00  0.00     0.031 A 
ATOM     15  C6  FTA A   1       2.931  15.677  11.593  1.00  0.00     0.031 A 
ATOM     16  C7  FTA A   1       2.233  14.504  11.864  1.00  0.00     0.032 A 
ATOM     17  C5  FTA A   1       2.797  13.303  11.472  1.00  0.00     0.031 A 
ATOM     18  C3  FTA A   1       4.045  13.273  10.862  1.00  0.00     0.031 A 
BRANCH  16  19
ATOM     19  N8  FTA A   1       1.071  14.470  12.677  1.00  0.00    -0.356 N 
ATOM     20  H1  FTA A   1       1.192  14.667  13.681  1.00  0.00     0.166 HD
BRANCH  19  21
ATOM     21  C24 FTA A   1      -0.251  14.185  12.219  1.00  0.00     0.032 A 
ATOM     22  C26 FTA A   1      -1.185  13.595  13.037  1.00  0.00     0.029 A 
ATOM     23  C28 FTA A   1      -2.386  13.189  12.486  1.00  0.00     0.002 A 
ATOM     24  C30 FTA A   1      -2.693  13.384  11.150  1.00  0.00     0.000 A 
ATOM     25  C29 FTA A   1      -1.786  14.005  10.333  1.00  0.00     0.002 A 
ATOM     26  C27 FTA A   1      -0.568  14.414  10.888  1.00  0.00     0.029 A 
ENDBRANCH  19  21
ENDBRANCH  16  19
ENDBRANCH  11  13
ENDBRANCH   1  11
TORSDOF 5
ENDMDL
MODEL 3
REMARK VINA RESULT:    -6.063      1.378      2.161
REMARK INTER + INTRA:          -8.887
REMARK INTER:                  -7.889
REMARK INTRA:                  -0.998
REMARK UNBOUND:                -1.051
REMARK  5 active torsions:
REMARK  status: ('A' for Active; 'I' for Inactive)
REMARK    1  A    between atoms: N8_1  and  C24_2 
REMARK    2  A    between atoms: N8_1  and  C7_8 
REMARK    3  A    between atoms: C2_13  and  N1_14 
REMARK    4  A    between atoms: N1_14  and  C17_15 
REMARK    5  A    between atoms: C14_16  and  C13_19 
ROOT
ATOM      1  C17 FTA A   1       7.008  13.659  11.169  1.00  0.00     0.142 C 
ATOM      2  C14 FTA A   1       7.778  12.811  10.460  1.00  0.00     0.158 C 
ATOM      3  C18 FTA A   1       9.209  13.012  10.391  1.00  0.00     0.069 C 
ATOM      4  N21 FTA A   1      10.338  13.330  10.377  1.00  0.00    -0.197 NA
ENDROOT
BRANCH   2   5
ATOM      5  C13 FTA A   1       7.150  11.664   9.765  1.00  0.00     0.197 A 
ATOM      6  N15 FTA A   1       7.665  10.372   9.678  1.00  0.00    -0.093 NA
ATOM      7  N19 FTA A   1       6.788   9.624   8.904  1.00  0.00    -0.231 N 
ATOM      8  N20 FTA A   1       5.733  10.429   8.504  1.00  0.00    -0.017 NA
ATOM      9  H15 FTA A   1       6.903   8.628   8.665  1.00  0.00     0.200 HD
ATOM     10  N16 FTA A   1       5.949  11.692   9.046  1.00  0.00    -0.090 NA
ENDBRANCH   2   5
BRANCH   1  11
ATOM     11  N1  FTA A   1       5.945  14.231  10.569  1.00  0.00    -0.389 N 
ATOM     12  H11 FTA A   1       6.068  14.566   9.602  1.00  0.00     0.159 HD
BRANCH  11  13
ATOM     13  C2  FTA A   1       4.668  14.406  11.168  1.00  0.00     0.028 A 
ATOM     14  C4  FTA A   1       3.725  13.383  11.215  1.00  0.00     0.031 A 
ATOM     15  C6  FTA A   1       2.413  13.685  11.607  1.00  0.00     0.031 A 
ATOM     16  C7  FTA A   1       2.022  14.977  11.949  1.00  0.00     0.032 A 
ATOM     17  C5  FTA A   1       2.977  15.977  11.921  1.00  0.00     0.031 A 
ATOM     18  C3  FTA A   1       4.279  15.701  11.523  1.00  0.00     0.031 A 
BRANCH  16  19
ATOM     19  N8  FTA A   1       0.666  15.344  12.144  1.00  0.00    -0.356 N 
ATOM     20  H1  FTA A   1       0.481  16.281  12.531  1.00  0.00     0.166 HD
BRANCH  19  21
ATOM     21  C24 FTA A   1      -0.464  14.522  11.848  1.00  0.00     0.032 A 
ATOM     22  C26 FTA A   1      -0.968  14.422  10.573  1.00  0.00     0.029 A 
ATOM     23  C28 FTA A   1      -2.161  13.752  10.383  1.00  0.00     0.002 A 
ATOM     24  C30 FTA A   1      -2.849  13.151  11.424  1.00  0.00     0.000 A 
ATOM     25  C29 FTA A   1      -2.338  13.211  12.693  1.00  0.00     0.002 A 
ATOM     26  C27 FTA A   1      -1.132  13.893  12.889  1.00  0.00     0.029 A 
ENDBRANCH  19  21
ENDBRANCH  16  19
ENDBRANCH  11  13
ENDBRANCH   1  11
TORSDOF 5
ENDMDL
MODEL 4
REMARK VINA RESULT:    -6.059      1.448      2.502
REMARK INTER + INTRA:          -8.882
REMARK INTER:                  -7.873
REMARK INTRA:                  -1.009
REMARK UNBOUND:                -1.051
REMARK  5 active torsions:
REMARK  status: ('A' for Active; 'I' for Inactive)
REMARK    1  A    between atoms: N8_1  and  C24_2 
REMARK    2  A    between atoms: N8_1  and  C7_8 
REMARK    3  A    between atoms: C2_13  and  N1_14 
REMARK    4  A    between atoms: N1_14  and  C17_15 
REMARK    5  A    between atoms: C14_16  and  C13_19 
ROOT
ATOM      1  C17 FTA A   1       7.577  11.616  10.113  1.00  0.00     0.142 C 
ATOM      2  C14 FTA A   1       7.770  10.888   8.995  1.00  0.00     0.158 C 
ATOM      3  C18 FTA A   1       9.066  10.305   8.721  1.00  0.00     0.069 C 
ATOM      4  N21 FTA A   1      10.175   9.945   8.602  1.00  0.00    -0.197 NA
ENDROOT
BRANCH   2   5
ATOM      5  C13 FTA A   1       6.641  10.676   8.060  1.00  0.00     0.197 A 
ATOM      6  N15 FTA A   1       6.384  11.409   6.903  1.00  0.00    -0.093 NA
ATOM      7  N19 FTA A   1       5.210  10.916   6.349  1.00  0.00    -0.231 N 
ATOM      8  N20 FTA A   1       4.728   9.887   7.145  1.00  0.00    -0.017 NA
ATOM      9  H15 FTA A   1       4.767  11.260   5.485  1.00  0.00     0.200 HD
ATOM     10  N16 FTA A   1       5.620   9.730   8.200  1.00  0.00    -0.090 NA
ENDBRANCH   2   5
BRANCH   1  11
ATOM     11  N1  FTA A   1       7.058  12.854  10.002  1.00  0.00    -0.389 N 
ATOM     12  H11 FTA A   1       7.541  13.519   9.380  1.00  0.00     0.159 HD
BRANCH  11  13
ATOM     13  C2  FTA A   1       5.894  13.313  10.676  1.00  0.00     0.028 A 
ATOM     14  C4  FTA A   1       4.725  12.558  10.736  1.00  0.00     0.031 A 
ATOM     15  C6  FTA A   1       3.551  13.159  11.211  1.00  0.00     0.031 A 
ATOM     16  C7  FTA A   1       3.515  14.488  11.624  1.00  0.00     0.032 A 
ATOM     17  C5  FTA A   1       4.690  15.217  11.583  1.00  0.00     0.031 A 
ATOM     18  C3  FTA A   1       5.861  14.644  11.102  1.00  0.00     0.031 A 
BRANCH  16  19
ATOM     19  N8  FTA A   1       2.305  15.173  11.907  1.00  0.00    -0.356 N 
ATOM     20  H1  FTA A   1       2.381  16.127  12.287  1.00  0.00     0.166 HD
BRANCH  19  21
ATOM     21  C24 FTA A   1       0.992  14.648  11.710  1.00  0.00     0.032 A 
ATOM     22  C26 FTA A   1       0.331  14.793  10.514  1.00  0.00     0.029 A 
ATOM     23  C28 FTA A   1      -0.997  14.418  10.442  1.00  0.00     0.002 A 
ATOM     24  C30 FTA A   1      -1.675  13.872  11.520  1.00  0.00     0.000 A 
ATOM     25  C29 FTA A   1      -1.015  13.687  12.705  1.00  0.00     0.002 A 
ATOM     26  C27 FTA A   1       0.328  14.070  12.782  1.00  0.00     0.029 A 
ENDBRANCH  19  21
ENDBRANCH  16  19
ENDBRANCH  11  13
ENDBRANCH   1  11
TORSDOF 5
ENDMDL
MODEL 5
REMARK VINA RESULT:    -6.036      3.652      4.839
REMARK INTER + INTRA:          -8.852
REMARK INTER:                  -7.808
REMARK INTRA:                  -1.044
REMARK UNBOUND:                -1.051
REMARK  5 active torsions:
REMARK  status: ('A' for Active; 'I' for Inactive)
REMARK    1  A    between atoms: N8_1  and  C24_2 
REMARK    2  A    between atoms: N8_1  and  C7_8 
REMARK    3  A    between atoms: C2_13  and  N1_14 
REMARK    4  A    between atoms: N1_14  and  C17_15 
REMARK    5  A    between atoms: C14_16  and  C13_19 
ROOT
ATOM      1  C17 FTA A   1       8.397  12.274  10.084  1.00  0.00     0.142 C 
ATOM      2  C14 FTA A   1       8.210  11.213   9.274  1.00  0.00     0.158 C 
ATOM      3  C18 FTA A   1       9.336  10.403   8.864  1.00  0.00     0.069 C 
ATOM      4  N21 FTA A   1      10.342   9.876   8.570  1.00  0.00    -0.197 NA
ENDROOT
BRANCH   2   5
ATOM      5  C13 FTA A   1       6.841  10.876   8.820  1.00  0.00     0.197 A 
ATOM      6  N15 FTA A   1       5.655  11.422   9.308  1.00  0.00    -0.093 NA
ATOM      7  N19 FTA A   1       4.605  10.799   8.645  1.00  0.00    -0.231 N 
ATOM      8  N20 FTA A   1       5.118   9.869   7.753  1.00  0.00    -0.017 NA
ATOM      9  H15 FTA A   1       3.605  10.996   8.794  1.00  0.00     0.200 HD
ATOM     10  N16 FTA A   1       6.505   9.923   7.851  1.00  0.00    -0.090 NA
ENDBRANCH   2   5
BRANCH   1  11
ATOM     11  N1  FTA A   1       7.913  13.474   9.709  1.00  0.00    -0.389 N 
ATOM     12  H11 FTA A   1       8.138  13.802   8.759  1.00  0.00     0.159 HD
BRANCH  11  13
ATOM     13  C2  FTA A   1       7.114  14.321  10.525  1.00  0.00     0.028 A 
ATOM     14  C4  FTA A   1       7.039  15.696  10.315  1.00  0.00     0.031 A 
ATOM     15  C6  FTA A   1       6.425  16.499  11.285  1.00  0.00     0.031 A 
ATOM     16  C7  FTA A   1       5.888  15.968  12.455  1.00  0.00     0.032 A 
ATOM     17  C5  FTA A   1       5.948  14.598  12.636  1.00  0.00     0.031 A 
ATOM     18  C3  FTA A   1       6.565  13.785  11.693  1.00  0.00     0.031 A 
BRANCH  16  19
ATOM     19  N8  FTA A   1       5.454  16.774  13.538  1.00  0.00    -0.356 N 
ATOM     20  H1  FTA A   1       4.550  17.258  13.433  1.00  0.00     0.166 HD
BRANCH  19  21
ATOM     21  C24 FTA A   1       6.165  16.969  14.760  1.00  0.00     0.032 A 
ATOM     22  C26 FTA A   1       5.597  16.676  15.978  1.00  0.00     0.029 A 
ATOM     23  C28 FTA A   1       6.269  17.048  17.127  1.00  0.00     0.002 A 
ATOM     24  C30 FTA A   1       7.503  17.674  17.097  1.00  0.00     0.000 A 
ATOM     25  C29 FTA A   1       8.096  17.937  15.891  1.00  0.00     0.002 A 
ATOM     26  C27 FTA A   1       7.417  17.565  14.725  1.00  0.00     0.029 A 
ENDBRANCH  19  21
ENDBRANCH  16  19
ENDBRANCH  11  13
ENDBRANCH   1  11
TORSDOF 5
ENDMDL
MODEL 6
REMARK VINA RESULT:    -5.930      1.658      2.155
REMARK INTER + INTRA:          -8.714
REMARK INTER:                  -7.586
REMARK INTRA:                  -1.128
REMARK UNBOUND:                -1.051
REMARK  5 active torsions:
REMARK  status: ('A' for Active; 'I' for Inactive)
REMARK    1  A    between atoms: N8_1  and  C24_2 
REMARK    2  A    between atoms: N8_1  and  C7_8 
REMARK    3  A    between atoms: C2_13  and  N1_14 
REMARK    4  A    between atoms: N1_14  and  C17_15 
REMARK    5  A    between atoms: C14_16  and  C13_19 
ROOT
ATOM      1  C17 FTA A   1       6.883  13.742   9.303  1.00  0.00     0.142 C 
ATOM      2  C14 FTA A   1       6.201  13.180   8.285  1.00  0.00     0.158 C 
ATOM      3  C18 FTA A   1       5.689  14.003   7.211  1.00  0.00     0.069 C 
ATOM      4  N21 FTA A   1       5.286  14.795   6.445  1.00  0.00    -0.197 NA
ENDROOT
BRANCH   2   5
ATOM      5  C13 FTA A   1       5.995  11.714   8.268  1.00  0.00     0.197 A 
ATOM      6  N15 FTA A   1       6.828  10.759   8.848  1.00  0.00    -0.093 NA
ATOM      7  N19 FTA A   1       6.296   9.509   8.559  1.00  0.00    -0.231 N 
ATOM      8  N20 FTA A   1       5.143   9.669   7.805  1.00  0.00    -0.017 NA
ATOM      9  H15 FTA A   1       6.694   8.607   8.858  1.00  0.00     0.200 HD
ATOM     10  N16 FTA A   1       4.948  11.035   7.632  1.00  0.00    -0.090 NA
ENDBRANCH   2   5
BRANCH   1  11
ATOM     11  N1  FTA A   1       6.491  13.490  10.567  1.00  0.00    -0.389 N 
ATOM     12  H11 FTA A   1       7.130  12.946  11.164  1.00  0.00     0.159 HD
BRANCH  11  13
ATOM     13  C2  FTA A   1       5.262  13.918  11.139  1.00  0.00     0.028 A 
ATOM     14  C4  FTA A   1       4.129  13.108  11.153  1.00  0.00     0.031 A 
ATOM     15  C6  FTA A   1       2.897  13.668  11.519  1.00  0.00     0.031 A 
ATOM     16  C7  FTA A   1       2.769  15.010  11.869  1.00  0.00     0.032 A 
ATOM     17  C5  FTA A   1       3.909  15.794  11.875  1.00  0.00     0.031 A 
ATOM     18  C3  FTA A   1       5.136  15.262  11.502  1.00  0.00     0.031 A 
BRANCH  16  19
ATOM     19  N8  FTA A   1       1.512  15.644  12.039  1.00  0.00    -0.356 N 
ATOM     20  H1  FTA A   1       1.499  16.674  12.041  1.00  0.00     0.166 HD
BRANCH  19  21
ATOM     21  C24 FTA A   1       0.263  14.973  12.206  1.00  0.00     0.032 A 
ATOM     22  C26 FTA A   1      -0.172  14.559  13.443  1.00  0.00     0.029 A 
ATOM     23  C28 FTA A   1      -1.301  13.765  13.516  1.00  0.00     0.002 A 
ATOM     24  C30 FTA A   1      -2.026  13.400  12.394  1.00  0.00     0.000 A 
ATOM     25  C29 FTA A   1      -1.625  13.838  11.160  1.00  0.00     0.002 A 
ATOM     26  C27 FTA A   1      -0.479  14.638  11.083  1.00  0.00     0.029 A 
ENDBRANCH  19  21
ENDBRANCH  16  19
ENDBRANCH  11  13
ENDBRANCH   1  11
TORSDOF 5
ENDMDL
MODEL 7
REMARK VINA RESULT:    -5.910      1.670      2.210
REMARK INTER + INTRA:          -8.688
REMARK INTER:                  -7.610
REMARK INTRA:                  -1.078
REMARK UNBOUND:                -1.051
REMARK  5 active torsions:
REMARK  status: ('A' for Active; 'I' for Inactive)
REMARK    1  A    between atoms: N8_1  and  C24_2 
REMARK    2  A    between atoms: N8_1  and  C7_8 
REMARK    3  A    between atoms: C2_13  and  N1_14 
REMARK    4  A    between atoms: N1_14  and  C17_15 
REMARK    5  A    between atoms: C14_16  and  C13_19 
ROOT
ATOM      1  C17 FTA A   1       7.509  12.217  11.424  1.00  0.00     0.142 C 
ATOM      2  C14 FTA A   1       7.587  12.168  10.079  1.00  0.00     0.158 C 
ATOM      3  C18 FTA A   1       8.520  13.020   9.373  1.00  0.00     0.069 C 
ATOM      4  N21 FTA A   1       9.275  13.804   8.935  1.00  0.00    -0.197 NA
ENDROOT
BRANCH   2   5
ATOM      5  C13 FTA A   1       6.723  11.225   9.333  1.00  0.00     0.197 A 
ATOM      6  N15 FTA A   1       7.092   9.967   8.863  1.00  0.00    -0.093 NA
ATOM      7  N19 FTA A   1       6.003   9.439   8.182  1.00  0.00    -0.231 N 
ATOM      8  N20 FTA A   1       4.959  10.351   8.217  1.00  0.00    -0.017 NA
ATOM      9  H15 FTA A   1       5.976   8.517   7.723  1.00  0.00     0.200 HD
ATOM     10  N16 FTA A   1       5.399  11.455   8.940  1.00  0.00    -0.090 NA
ENDBRANCH   2   5
BRANCH   1  11
ATOM     11  N1  FTA A   1       6.307  12.410  12.000  1.00  0.00    -0.389 N 
ATOM     12  H11 FTA A   1       5.950  11.666  12.617  1.00  0.00     0.159 HD
BRANCH  11  13
ATOM     13  C2  FTA A   1       5.492  13.561  11.821  1.00  0.00     0.028 A 
ATOM     14  C4  FTA A   1       5.929  14.838  12.161  1.00  0.00     0.031 A 
ATOM     15  C6  FTA A   1       5.005  15.891  12.178  1.00  0.00     0.031 A 
ATOM     16  C7  FTA A   1       3.661  15.701  11.867  1.00  0.00     0.032 A 
ATOM     17  C5  FTA A   1       3.248  14.431  11.506  1.00  0.00     0.031 A 
ATOM     18  C3  FTA A   1       4.146  13.371  11.496  1.00  0.00     0.031 A 
BRANCH  16  19
ATOM     19  N8  FTA A   1       2.674  16.698  12.078  1.00  0.00    -0.356 N 
ATOM     20  H1  FTA A   1       2.312  17.188  11.247  1.00  0.00     0.166 HD
BRANCH  19  21
ATOM     21  C24 FTA A   1       2.141  17.077  13.347  1.00  0.00     0.032 A 
ATOM     22  C26 FTA A   1       2.679  18.113  14.074  1.00  0.00     0.029 A 
ATOM     23  C28 FTA A   1       2.231  18.318  15.365  1.00  0.00     0.002 A 
ATOM     24  C30 FTA A   1       1.241  17.541  15.941  1.00  0.00     0.000 A 
ATOM     25  C29 FTA A   1       0.670  16.531  15.213  1.00  0.00     0.002 A 
ATOM     26  C27 FTA A   1       1.124  16.318  13.907  1.00  0.00     0.029 A 
ENDBRANCH  19  21
ENDBRANCH  16  19
ENDBRANCH  11  13
ENDBRANCH   1  11
TORSDOF 5
ENDMDL
MODEL 8
REMARK VINA RESULT:    -5.897      2.242      7.921
REMARK INTER + INTRA:          -8.672
REMARK INTER:                  -7.543
REMARK INTRA:                  -1.130
REMARK UNBOUND:                -1.051
REMARK  5 active torsions:
REMARK  status: ('A' for Active; 'I' for Inactive)
REMARK    1  A    between atoms: N8_1  and  C24_2 
REMARK    2  A    between atoms: N8_1  and  C7_8 
REMARK    3  A    between atoms: C2_13  and  N1_14 
REMARK    4  A    between atoms: N1_14  and  C17_15 
REMARK    5  A    between atoms: C14_16  and  C13_19 
ROOT
ATOM      1  C17 FTA A   1       2.151  16.875  11.910  1.00  0.00     0.142 C 
ATOM      2  C14 FTA A   1       1.589  16.426  13.050  1.00  0.00     0.158 C 
ATOM      3  C18 FTA A   1       1.909  17.053  14.314  1.00  0.00     0.069 C 
ATOM      4  N21 FTA A   1       2.303  17.615  15.264  1.00  0.00    -0.197 NA
ENDROOT
BRANCH   2   5
ATOM      5  C13 FTA A   1       0.630  15.299  12.994  1.00  0.00     0.197 A 
ATOM      6  N15 FTA A   1       0.209  14.524  14.072  1.00  0.00    -0.093 NA
ATOM      7  N19 FTA A   1      -0.651  13.552  13.578  1.00  0.00    -0.231 N 
ATOM      8  N20 FTA A   1      -0.771  13.707  12.204  1.00  0.00    -0.017 NA
ATOM      9  H15 FTA A   1      -1.124  12.830  14.141  1.00  0.00     0.200 HD
ATOM     10  N16 FTA A   1       0.014  14.797  11.842  1.00  0.00    -0.090 NA
ENDBRANCH   2   5
BRANCH   1  11
ATOM     11  N1  FTA A   1       2.782  15.998  11.106  1.00  0.00    -0.389 N 
ATOM     12  H11 FTA A   1       2.533  16.004  10.106  1.00  0.00     0.159 HD
BRANCH  11  13
ATOM     13  C2  FTA A   1       3.766  15.064  11.531  1.00  0.00     0.028 A 
ATOM     14  C4  FTA A   1       4.963  15.466  12.120  1.00  0.00     0.031 A 
ATOM     15  C6  FTA A   1       5.981  14.521  12.303  1.00  0.00     0.031 A 
ATOM     16  C7  FTA A   1       5.837  13.192  11.913  1.00  0.00     0.032 A 
ATOM     17  C5  FTA A   1       4.633  12.803  11.352  1.00  0.00     0.031 A 
ATOM     18  C3  FTA A   1       3.616  13.728  11.150  1.00  0.00     0.031 A 
BRANCH  16  19
ATOM     19  N8  FTA A   1       6.917  12.273  11.895  1.00  0.00    -0.356 N 
ATOM     20  H1  FTA A   1       7.080  11.719  12.748  1.00  0.00     0.166 HD
BRANCH  19  21
ATOM     21  C24 FTA A   1       7.796  12.053  10.792  1.00  0.00     0.032 A 
ATOM     22  C26 FTA A   1       7.636  10.981   9.946  1.00  0.00     0.029 A 
ATOM     23  C28 FTA A   1       8.617  10.727   9.006  1.00  0.00     0.002 A 
ATOM     24  C30 FTA A   1       9.737  11.528   8.866  1.00  0.00     0.000 A 
ATOM     25  C29 FTA A   1       9.889  12.621   9.677  1.00  0.00     0.002 A 
ATOM     26  C27 FTA A   1       8.899  12.879  10.632  1.00  0.00     0.029 A 
ENDBRANCH  19  21
ENDBRANCH  16  19
ENDBRANCH  11  13
ENDBRANCH   1  11
TORSDOF 5
ENDMDL
MODEL 9
REMARK VINA RESULT:    -5.727      4.138      9.392
REMARK INTER + INTRA:          -8.452
REMARK INTER:                  -7.401
REMARK INTRA:                  -1.051
REMARK UNBOUND:                -1.051
REMARK  5 active torsions:
REMARK  status: ('A' for Active; 'I' for Inactive)
REMARK    1  A    between atoms: N8_1  and  C24_2 
REMARK    2  A    between atoms: N8_1  and  C7_8 
REMARK    3  A    between atoms: C2_13  and  N1_14 
REMARK    4  A    between atoms: N1_14  and  C17_15 
REMARK    5  A    between atoms: C14_16  and  C13_19 
ROOT
ATOM      1  C17 FTA A   1       8.094  13.262  10.259  1.00  0.00     0.142 C 
ATOM      2  C14 FTA A   1       6.897  12.679  10.470  1.00  0.00     0.158 C 
ATOM      3  C18 FTA A   1       6.016  13.178  11.503  1.00  0.00     0.069 C 
ATOM      4  N21 FTA A   1       5.436  13.649  12.406  1.00  0.00    -0.197 NA
ENDROOT
BRANCH   2   5
ATOM      5  C13 FTA A   1       6.487  11.534   9.625  1.00  0.00     0.197 A 
ATOM      6  N15 FTA A   1       7.214  10.363   9.416  1.00  0.00    -0.093 NA
ATOM      7  N19 FTA A   1       6.494   9.577   8.526  1.00  0.00    -0.231 N 
ATOM      8  N20 FTA A   1       5.328  10.241   8.172  1.00  0.00    -0.017 NA
ATOM      9  H15 FTA A   1       6.780   8.649   8.182  1.00  0.00     0.200 HD
ATOM     10  N16 FTA A   1       5.317  11.450   8.861  1.00  0.00    -0.090 NA
ENDBRANCH   2   5
BRANCH   1  11
ATOM     11  N1  FTA A   1       9.201  12.495  10.254  1.00  0.00    -0.389 N 
ATOM     12  H11 FTA A   1       9.496  12.079  11.149  1.00  0.00     0.159 HD
BRANCH  11  13
ATOM     13  C2  FTA A   1       9.994  12.215   9.107  1.00  0.00     0.028 A 
ATOM     14  C4  FTA A   1       9.690  12.736   7.852  1.00  0.00     0.031 A 
ATOM     15  C6  FTA A   1      10.368  12.242   6.729  1.00  0.00     0.031 A 
ATOM     16  C7  FTA A   1      11.333  11.243   6.827  1.00  0.00     0.032 A 
ATOM     17  C5  FTA A   1      11.641  10.754   8.084  1.00  0.00     0.031 A 
ATOM     18  C3  FTA A   1      10.971  11.222   9.208  1.00  0.00     0.031 A 
BRANCH  16  19
ATOM     19  N8  FTA A   1      11.877  10.584   5.695  1.00  0.00    -0.356 N 
ATOM     20  H1  FTA A   1      12.756  10.957   5.308  1.00  0.00     0.166 HD
BRANCH  19  21
ATOM     21  C24 FTA A   1      11.306   9.446   5.048  1.00  0.00     0.032 A 
ATOM     22  C26 FTA A   1      10.113   8.904   5.464  1.00  0.00     0.029 A 
ATOM     23  C28 FTA A   1       9.703   7.706   4.911  1.00  0.00     0.002 A 
ATOM     24  C30 FTA A   1      10.432   7.049   3.934  1.00  0.00     0.000 A 
ATOM     25  C29 FTA A   1      11.603   7.599   3.485  1.00  0.00     0.002 A 
ATOM     26  C27 FTA A   1      12.023   8.810   4.045  1.00  0.00     0.029 A 
ENDBRANCH  19  21
ENDBRANCH  16  19
ENDBRANCH  11  13
ENDBRANCH   1  11
TORSDOF 5
ENDMDL
