MODEL 1
REMARK VINA RESULT:    -7.809      0.000      0.000
REMARK INTER + INTRA:         -13.144
REMARK INTER:                 -11.345
REMARK INTRA:                  -1.799
REMARK UNBOUND:                -2.596
REMARK  7 active torsions:
REMARK  status: ('A' for Active; 'I' for Inactive)
REMARK    1  A    between atoms: C_2  and  N_4 
REMARK    2  A    between atoms: N_4  and  S_6 
REMARK    3  A    between atoms: S_6  and  C_9 
REMARK    4  A    between atoms: C_11  and  C_12 
REMARK    5  A    between atoms: N_17  and  C_18 
REMARK    6  A    between atoms: C_25  and  O_26 
REMARK    7  A    between atoms: C_28  and  O_29 
ROOT
HETATM    1  C   UNL     1       1.517  10.713  24.867  0.00  0.00     0.113 A 
HETATM    2  C   UNL     1       2.197   9.844  25.745  0.00  0.00     0.042 A 
HETATM    3  C   UNL     1       1.577   9.282  26.879  0.00  0.00     0.023 A 
HETATM    4  C   UNL     1       0.257   9.677  27.139  0.00  0.00     0.078 A 
HETATM    5  C   UNL     1      -0.419  10.558  26.287  0.00  0.00     0.075 A 
HETATM    6  C   UNL     1       0.202  11.066  25.143  0.00  0.00     0.091 A 
ENDROOT
BRANCH   3   7
HETATM    7  C   UNL     1       2.405   8.309  27.705  0.00  0.00     0.277 C 
HETATM    8  N   UNL     1       2.707   8.856  29.046  0.00  0.00    -0.156 NA
HETATM    9  N   UNL     1       2.486   7.981  29.929  0.00  0.00    -0.093 NA
HETATM   10  C   UNL     1       1.970   6.843  29.339  0.00  0.00     0.369 C 
HETATM   11  O   UNL     1       1.719   5.804  29.934  0.00  0.00    -0.243 OA
HETATM   12  N   UNL     1       1.788   7.063  27.989  0.00  0.00    -0.264 N 
BRANCH  12  13
HETATM   13  C   UNL     1       1.382   6.098  27.044  0.00  0.00     0.080 A 
HETATM   14  C   UNL     1       2.355   5.491  26.234  0.00  0.00     0.033 A 
HETATM   15  C   UNL     1       2.009   4.442  25.381  0.00  0.00     0.002 A 
HETATM   16  C   UNL     1       0.684   4.024  25.283  0.00  0.00     0.003 A 
HETATM   17  C   UNL     1      -0.297   4.648  26.051  0.00  0.00     0.044 A 
HETATM   18  C   UNL     1       0.060   5.657  26.940  0.00  0.00     0.143 A 
HETATM   19  F   UNL     1      -0.908   6.241  27.663  0.00  0.00    -0.204 F 
ENDBRANCH  12  13
ENDBRANCH   3   7
BRANCH   4  20
HETATM   20  O   UNL     1      -0.478   9.245  28.205  0.00  0.00    -0.360 OA
HETATM   21  H   UNL     1      -1.393   9.550  28.120  0.00  0.00     0.217 HD
ENDBRANCH   4  20
BRANCH   1  22
HETATM   22  S   UNL     1       2.316  11.082  23.310  0.00  0.00     0.263 S 
HETATM   23  O   UNL     1       1.443  11.907  22.510  0.00  0.00    -0.200 OA
HETATM   24  O   UNL     1       2.732   9.796  22.772  0.00  0.00    -0.200 OA
BRANCH  22  25
HETATM   25  N   UNL     1       3.755  11.912  23.723  0.00  0.00    -0.307 N 
HETATM   26  C   UNL     1       4.989  11.096  23.577  0.00  0.00     0.163 C 
BRANCH  25  27
HETATM   27  C   UNL     1       3.804  12.864  24.879  0.00  0.00     0.087 C 
HETATM   28  C   UNL     1       5.236  13.415  25.037  0.00  0.00     0.032 C 
HETATM   29  C   UNL     1       2.898  14.086  24.712  0.00  0.00     0.032 C 
ENDBRANCH  25  27
ENDBRANCH  22  25
ENDBRANCH   1  22
BRANCH   6  30
HETATM   30  O   UNL     1      -0.492  11.923  24.349  0.00  0.00    -0.359 OA
HETATM   31  H   UNL     1      -0.711  11.482  23.506  0.00  0.00     0.217 HD
ENDBRANCH   6  30
TORSDOF 7
ENDMDL
MODEL 2
REMARK VINA RESULT:    -7.695      0.888      1.258
REMARK INTER + INTRA:         -12.990
REMARK INTER:                 -11.251
REMARK INTRA:                  -1.739
REMARK UNBOUND:                -2.596
REMARK  7 active torsions:
REMARK  status: ('A' for Active; 'I' for Inactive)
REMARK    1  A    between atoms: C_2  and  N_4 
REMARK    2  A    between atoms: N_4  and  S_6 
REMARK    3  A    between atoms: S_6  and  C_9 
REMARK    4  A    between atoms: C_11  and  C_12 
REMARK    5  A    between atoms: N_17  and  C_18 
REMARK    6  A    between atoms: C_25  and  O_26 
REMARK    7  A    between atoms: C_28  and  O_29 
ROOT
HETATM    1  C   UNL     1       1.543  10.683  24.896  0.00  0.00     0.113 A 
HETATM    2  C   UNL     1       2.236   9.835  25.785  0.00  0.00     0.042 A 
HETATM    3  C   UNL     1       1.624   9.275  26.923  0.00  0.00     0.023 A 
HETATM    4  C   UNL     1       0.297   9.650  27.177  0.00  0.00     0.078 A 
HETATM    5  C   UNL     1      -0.393  10.510  26.315  0.00  0.00     0.075 A 
HETATM    6  C   UNL     1       0.221  11.016  25.166  0.00  0.00     0.091 A 
ENDROOT
BRANCH   3   7
HETATM    7  C   UNL     1       2.467   8.326  27.762  0.00  0.00     0.277 C 
HETATM    8  N   UNL     1       2.808   8.917  29.074  0.00  0.00    -0.156 NA
HETATM    9  N   UNL     1       2.605   8.076  29.994  0.00  0.00    -0.093 NA
HETATM   10  C   UNL     1       2.065   6.921  29.458  0.00  0.00     0.369 C 
HETATM   11  O   UNL     1       1.823   5.906  30.095  0.00  0.00    -0.243 OA
HETATM   12  N   UNL     1       1.849   7.095  28.106  0.00  0.00    -0.264 N 
BRANCH  12  13
HETATM   13  C   UNL     1       1.412   6.100  27.207  0.00  0.00     0.080 A 
HETATM   14  C   UNL     1       0.034   5.861  27.079  0.00  0.00     0.033 A 
HETATM   15  C   UNL     1      -0.441   4.977  26.109  0.00  0.00     0.002 A 
HETATM   16  C   UNL     1       0.450   4.280  25.296  0.00  0.00     0.003 A 
HETATM   17  C   UNL     1       1.822   4.478  25.444  0.00  0.00     0.044 A 
HETATM   18  C   UNL     1       2.289   5.400  26.375  0.00  0.00     0.143 A 
HETATM   19  F   UNL     1       3.616   5.565  26.496  0.00  0.00    -0.204 F 
ENDBRANCH  12  13
ENDBRANCH   3   7
BRANCH   4  20
HETATM   20  O   UNL     1      -0.433   9.217  28.246  0.00  0.00    -0.360 OA
HETATM   21  H   UNL     1       0.004   8.457  28.659  0.00  0.00     0.217 HD
ENDBRANCH   4  20
BRANCH   1  22
HETATM   22  S   UNL     1       2.339  11.048  23.336  0.00  0.00     0.263 S 
HETATM   23  O   UNL     1       1.464  11.872  22.537  0.00  0.00    -0.200 OA
HETATM   24  O   UNL     1       2.753   9.761  22.801  0.00  0.00    -0.200 OA
BRANCH  22  25
HETATM   25  N   UNL     1       3.778  11.879  23.745  0.00  0.00    -0.307 N 
HETATM   26  C   UNL     1       5.011  11.061  23.605  0.00  0.00     0.163 C 
BRANCH  25  27
HETATM   27  C   UNL     1       3.828  12.839  24.895  0.00  0.00     0.087 C 
HETATM   28  C   UNL     1       5.256  13.404  25.038  0.00  0.00     0.032 C 
HETATM   29  C   UNL     1       2.909  14.052  24.728  0.00  0.00     0.032 C 
ENDBRANCH  25  27
ENDBRANCH  22  25
ENDBRANCH   1  22
BRANCH   6  30
HETATM   30  O   UNL     1      -0.486  11.852  24.361  0.00  0.00    -0.359 OA
HETATM   31  H   UNL     1      -1.023  11.328  23.737  0.00  0.00     0.217 HD
ENDBRANCH   6  30
TORSDOF 7
ENDMDL
MODEL 3
REMARK VINA RESULT:    -7.598      2.698      6.896
REMARK INTER + INTRA:         -12.859
REMARK INTER:                 -11.071
REMARK INTRA:                  -1.788
REMARK UNBOUND:                -2.596
REMARK  7 active torsions:
REMARK  status: ('A' for Active; 'I' for Inactive)
REMARK    1  A    between atoms: C_2  and  N_4 
REMARK    2  A    between atoms: N_4  and  S_6 
REMARK    3  A    between atoms: S_6  and  C_9 
REMARK    4  A    between atoms: C_11  and  C_12 
REMARK    5  A    between atoms: N_17  and  C_18 
REMARK    6  A    between atoms: C_25  and  O_26 
REMARK    7  A    between atoms: C_28  and  O_29 
ROOT
HETATM    1  C   UNL     1       1.044   8.347  26.909  0.00  0.00     0.113 A 
HETATM    2  C   UNL     1       0.852   8.918  25.634  0.00  0.00     0.042 A 
HETATM    3  C   UNL     1      -0.052   9.975  25.409  0.00  0.00     0.023 A 
HETATM    4  C   UNL     1      -0.812  10.401  26.508  0.00  0.00     0.078 A 
HETATM    5  C   UNL     1      -0.647   9.826  27.773  0.00  0.00     0.075 A 
HETATM    6  C   UNL     1       0.290   8.810  27.981  0.00  0.00     0.091 A 
ENDROOT
BRANCH   3   7
HETATM    7  C   UNL     1      -0.115  10.540  23.998  0.00  0.00     0.277 C 
HETATM    8  N   UNL     1      -1.479  10.995  23.654  0.00  0.00    -0.156 NA
HETATM    9  N   UNL     1      -1.433  12.137  23.119  0.00  0.00    -0.093 NA
HETATM   10  C   UNL     1      -0.128  12.594  23.109  0.00  0.00     0.369 C 
HETATM   11  O   UNL     1       0.237  13.642  22.596  0.00  0.00    -0.243 OA
HETATM   12  N   UNL     1       0.684  11.688  23.760  0.00  0.00    -0.264 N 
BRANCH  12  13
HETATM   13  C   UNL     1       2.090  11.762  23.853  0.00  0.00     0.080 A 
HETATM   14  C   UNL     1       2.668  12.860  24.511  0.00  0.00     0.033 A 
HETATM   15  C   UNL     1       4.045  12.902  24.735  0.00  0.00     0.002 A 
HETATM   16  C   UNL     1       4.867  11.883  24.258  0.00  0.00     0.003 A 
HETATM   17  C   UNL     1       4.308  10.810  23.567  0.00  0.00     0.044 A 
HETATM   18  C   UNL     1       2.929  10.744  23.393  0.00  0.00     0.143 A 
HETATM   19  F   UNL     1       2.422   9.701  22.719  0.00  0.00    -0.204 F 
ENDBRANCH  12  13
ENDBRANCH   3   7
BRANCH   4  20
HETATM   20  O   UNL     1      -1.745  11.395  26.457  0.00  0.00    -0.360 OA
HETATM   21  H   UNL     1      -1.636  11.910  25.643  0.00  0.00     0.217 HD
ENDBRANCH   4  20
BRANCH   1  22
HETATM   22  S   UNL     1       2.445   7.253  27.106  0.00  0.00     0.263 S 
HETATM   23  O   UNL     1       3.100   7.539  28.360  0.00  0.00    -0.200 OA
HETATM   24  O   UNL     1       3.215   7.383  25.880  0.00  0.00    -0.200 OA
BRANCH  22  25
HETATM   25  N   UNL     1       1.790   5.671  27.090  0.00  0.00    -0.307 N 
HETATM   26  C   UNL     1       2.790   4.599  27.336  0.00  0.00     0.163 C 
BRANCH  25  27
HETATM   27  C   UNL     1       0.721   5.276  26.117  0.00  0.00     0.087 C 
HETATM   28  C   UNL     1       1.084   3.926  25.467  0.00  0.00     0.032 C 
HETATM   29  C   UNL     1      -0.655   5.081  26.757  0.00  0.00     0.032 C 
ENDBRANCH  25  27
ENDBRANCH  22  25
ENDBRANCH   1  22
BRANCH   6  30
HETATM   30  O   UNL     1       0.411   8.277  29.225  0.00  0.00    -0.359 OA
HETATM   31  H   UNL     1       1.128   8.732  29.707  0.00  0.00     0.217 HD
ENDBRANCH   6  30
TORSDOF 7
ENDMDL
MODEL 4
REMARK VINA RESULT:    -7.508      3.457      6.193
REMARK INTER + INTRA:         -12.738
REMARK INTER:                 -11.451
REMARK INTRA:                  -1.287
REMARK UNBOUND:                -2.596
REMARK  7 active torsions:
REMARK  status: ('A' for Active; 'I' for Inactive)
REMARK    1  A    between atoms: C_2  and  N_4 
REMARK    2  A    between atoms: N_4  and  S_6 
REMARK    3  A    between atoms: S_6  and  C_9 
REMARK    4  A    between atoms: C_11  and  C_12 
REMARK    5  A    between atoms: N_17  and  C_18 
REMARK    6  A    between atoms: C_25  and  O_26 
REMARK    7  A    between atoms: C_28  and  O_29 
ROOT
HETATM    1  C   UNL     1       0.475  10.031  25.807  0.00  0.00     0.113 A 
HETATM    2  C   UNL     1       1.542   9.705  24.945  0.00  0.00     0.042 A 
HETATM    3  C   UNL     1       2.534   8.768  25.294  0.00  0.00     0.023 A 
HETATM    4  C   UNL     1       2.454   8.211  26.578  0.00  0.00     0.078 A 
HETATM    5  C   UNL     1       1.413   8.546  27.452  0.00  0.00     0.075 A 
HETATM    6  C   UNL     1       0.413   9.443  27.065  0.00  0.00     0.091 A 
ENDROOT
BRANCH   3   7
HETATM    7  C   UNL     1       3.592   8.461  24.245  0.00  0.00     0.277 C 
HETATM    8  N   UNL     1       3.135   7.421  23.299  0.00  0.00    -0.156 NA
HETATM    9  N   UNL     1       3.383   7.775  22.113  0.00  0.00    -0.093 NA
HETATM   10  C   UNL     1       3.929   9.045  22.110  0.00  0.00     0.369 C 
HETATM   11  O   UNL     1       4.331   9.627  21.113  0.00  0.00    -0.243 OA
HETATM   12  N   UNL     1       3.950   9.542  23.397  0.00  0.00    -0.264 N 
BRANCH  12  13
HETATM   13  C   UNL     1       4.533  10.762  23.800  0.00  0.00     0.080 A 
HETATM   14  C   UNL     1       3.699  11.866  24.039  0.00  0.00     0.033 A 
HETATM   15  C   UNL     1       4.226  13.048  24.562  0.00  0.00     0.002 A 
HETATM   16  C   UNL     1       5.595  13.164  24.796  0.00  0.00     0.003 A 
HETATM   17  C   UNL     1       6.437  12.089  24.521  0.00  0.00     0.044 A 
HETATM   18  C   UNL     1       5.901  10.894  24.052  0.00  0.00     0.143 A 
HETATM   19  F   UNL     1       6.739   9.878  23.793  0.00  0.00    -0.204 F 
ENDBRANCH  12  13
ENDBRANCH   3   7
BRANCH   4  20
HETATM   20  O   UNL     1       3.345   7.308  27.081  0.00  0.00    -0.360 OA
HETATM   21  H   UNL     1       2.895   6.472  27.275  0.00  0.00     0.217 HD
ENDBRANCH   4  20
BRANCH   1  22
HETATM   22  S   UNL     1      -0.875  10.975  25.109  0.00  0.00     0.263 S 
HETATM   23  O   UNL     1      -1.491  11.764  26.147  0.00  0.00    -0.200 OA
HETATM   24  O   UNL     1      -1.697  10.009  24.397  0.00  0.00    -0.200 OA
BRANCH  22  25
HETATM   25  N   UNL     1      -0.162  11.967  23.910  0.00  0.00    -0.307 N 
HETATM   26  C   UNL     1       0.414  13.233  24.434  0.00  0.00     0.163 C 
BRANCH  25  27
HETATM   27  C   UNL     1      -0.770  12.109  22.548  0.00  0.00     0.087 C 
HETATM   28  C   UNL     1      -2.169  12.747  22.668  0.00  0.00     0.032 C 
HETATM   29  C   UNL     1       0.027  13.014  21.606  0.00  0.00     0.032 C 
ENDBRANCH  25  27
ENDBRANCH  22  25
ENDBRANCH   1  22
BRANCH   6  30
HETATM   30  O   UNL     1      -0.575   9.742  27.948  0.00  0.00    -0.359 OA
HETATM   31  H   UNL     1      -0.996   8.918  28.259  0.00  0.00     0.217 HD
ENDBRANCH   6  30
TORSDOF 7
ENDMDL
MODEL 5
REMARK VINA RESULT:    -7.448      3.204      6.928
REMARK INTER + INTRA:         -12.657
REMARK INTER:                 -10.704
REMARK INTRA:                  -1.953
REMARK UNBOUND:                -2.596
REMARK  7 active torsions:
REMARK  status: ('A' for Active; 'I' for Inactive)
REMARK    1  A    between atoms: C_2  and  N_4 
REMARK    2  A    between atoms: N_4  and  S_6 
REMARK    3  A    between atoms: S_6  and  C_9 
REMARK    4  A    between atoms: C_11  and  C_12 
REMARK    5  A    between atoms: N_17  and  C_18 
REMARK    6  A    between atoms: C_25  and  O_26 
REMARK    7  A    between atoms: C_28  and  O_29 
ROOT
HETATM    1  C   UNL     1       1.616   7.324  26.228  0.00  0.00     0.113 A 
HETATM    2  C   UNL     1       2.670   7.406  25.296  0.00  0.00     0.042 A 
HETATM    3  C   UNL     1       2.490   7.130  23.927  0.00  0.00     0.023 A 
HETATM    4  C   UNL     1       1.215   6.700  23.532  0.00  0.00     0.078 A 
HETATM    5  C   UNL     1       0.167   6.591  24.452  0.00  0.00     0.075 A 
HETATM    6  C   UNL     1       0.358   6.916  25.798  0.00  0.00     0.091 A 
ENDROOT
BRANCH   3   7
HETATM    7  C   UNL     1       3.697   7.320  23.020  0.00  0.00     0.277 C 
HETATM    8  N   UNL     1       3.654   6.405  21.859  0.00  0.00    -0.156 NA
HETATM    9  N   UNL     1       3.916   7.038  20.799  0.00  0.00    -0.093 NA
HETATM   10  C   UNL     1       4.079   8.380  21.087  0.00  0.00     0.369 C 
HETATM   11  O   UNL     1       4.405   9.232  20.271  0.00  0.00    -0.243 OA
HETATM   12  N   UNL     1       3.822   8.602  22.424  0.00  0.00    -0.264 N 
BRANCH  12  13
HETATM   13  C   UNL     1       3.992   9.826  23.104  0.00  0.00     0.080 A 
HETATM   14  C   UNL     1       5.290  10.233  23.453  0.00  0.00     0.033 A 
HETATM   15  C   UNL     1       5.508  11.495  24.009  0.00  0.00     0.002 A 
HETATM   16  C   UNL     1       4.434  12.340  24.276  0.00  0.00     0.003 A 
HETATM   17  C   UNL     1       3.137  11.929  23.973  0.00  0.00     0.044 A 
HETATM   18  C   UNL     1       2.929  10.693  23.369  0.00  0.00     0.143 A 
HETATM   19  F   UNL     1       1.669  10.324  23.093  0.00  0.00    -0.204 F 
ENDBRANCH  12  13
ENDBRANCH   3   7
BRANCH   4  20
HETATM   20  O   UNL     1       0.878   6.370  22.251  0.00  0.00    -0.360 OA
HETATM   21  H   UNL     1       0.784   5.410  22.170  0.00  0.00     0.217 HD
ENDBRANCH   4  20
BRANCH   1  22
HETATM   22  S   UNL     1       1.910   8.015  27.851  0.00  0.00     0.263 S 
HETATM   23  O   UNL     1       0.662   8.087  28.572  0.00  0.00    -0.200 OA
HETATM   24  O   UNL     1       2.645   9.249  27.621  0.00  0.00    -0.200 OA
BRANCH  22  25
HETATM   25  N   UNL     1       3.008   6.943  28.609  0.00  0.00    -0.307 N 
HETATM   26  C   UNL     1       2.647   5.508  28.470  0.00  0.00     0.163 C 
BRANCH  25  27
HETATM   27  C   UNL     1       3.642   7.273  29.926  0.00  0.00     0.087 C 
HETATM   28  C   UNL     1       3.131   6.299  31.007  0.00  0.00     0.032 C 
HETATM   29  C   UNL     1       5.167   7.143  29.928  0.00  0.00     0.032 C 
ENDBRANCH  25  27
ENDBRANCH  22  25
ENDBRANCH   1  22
BRANCH   6  30
HETATM   30  O   UNL     1      -0.687   6.790  26.657  0.00  0.00    -0.359 OA
HETATM   31  H   UNL     1      -0.792   5.852  26.907  0.00  0.00     0.217 HD
ENDBRANCH   6  30
TORSDOF 7
ENDMDL
MODEL 6
REMARK VINA RESULT:    -7.429      2.892      6.493
REMARK INTER + INTRA:         -12.630
REMARK INTER:                 -10.666
REMARK INTRA:                  -1.964
REMARK UNBOUND:                -2.596
REMARK  7 active torsions:
REMARK  status: ('A' for Active; 'I' for Inactive)
REMARK    1  A    between atoms: C_2  and  N_4 
REMARK    2  A    between atoms: N_4  and  S_6 
REMARK    3  A    between atoms: S_6  and  C_9 
REMARK    4  A    between atoms: C_11  and  C_12 
REMARK    5  A    between atoms: N_17  and  C_18 
REMARK    6  A    between atoms: C_25  and  O_26 
REMARK    7  A    between atoms: C_28  and  O_29 
ROOT
HETATM    1  C   UNL     1       0.820   8.055  26.906  0.00  0.00     0.113 A 
HETATM    2  C   UNL     1       0.588   8.640  25.644  0.00  0.00     0.042 A 
HETATM    3  C   UNL     1      -0.192   9.803  25.484  0.00  0.00     0.023 A 
HETATM    4  C   UNL     1      -0.790  10.326  26.639  0.00  0.00     0.078 A 
HETATM    5  C   UNL     1      -0.586   9.740  27.893  0.00  0.00     0.075 A 
HETATM    6  C   UNL     1       0.230   8.614  28.034  0.00  0.00     0.091 A 
ENDROOT
BRANCH   3   7
HETATM    7  C   UNL     1      -0.309  10.366  24.076  0.00  0.00     0.277 C 
HETATM    8  N   UNL     1      -1.696  10.777  23.768  0.00  0.00    -0.156 NA
HETATM    9  N   UNL     1      -1.699  11.920  23.233  0.00  0.00    -0.093 NA
HETATM   10  C   UNL     1      -0.410  12.418  23.189  0.00  0.00     0.369 C 
HETATM   11  O   UNL     1      -0.092  13.478  22.667  0.00  0.00    -0.243 OA
HETATM   12  N   UNL     1       0.447  11.539  23.818  0.00  0.00    -0.264 N 
BRANCH  12  13
HETATM   13  C   UNL     1       1.851  11.657  23.875  0.00  0.00     0.080 A 
HETATM   14  C   UNL     1       2.412  12.801  24.466  0.00  0.00     0.033 A 
HETATM   15  C   UNL     1       3.791  12.893  24.656  0.00  0.00     0.002 A 
HETATM   16  C   UNL     1       4.632  11.876  24.209  0.00  0.00     0.003 A 
HETATM   17  C   UNL     1       4.090  10.756  23.582  0.00  0.00     0.044 A 
HETATM   18  C   UNL     1       2.710  10.643  23.444  0.00  0.00     0.143 A 
HETATM   19  F   UNL     1       2.219   9.554  22.832  0.00  0.00    -0.204 F 
ENDBRANCH  12  13
ENDBRANCH   3   7
BRANCH   4  20
HETATM   20  O   UNL     1      -1.592  11.431  26.656  0.00  0.00    -0.360 OA
HETATM   21  H   UNL     1      -2.361  11.273  27.223  0.00  0.00     0.217 HD
ENDBRANCH   4  20
BRANCH   1  22
HETATM   22  S   UNL     1       2.084   6.793  26.995  0.00  0.00     0.263 S 
HETATM   23  O   UNL     1       1.498   5.565  27.478  0.00  0.00    -0.200 OA
HETATM   24  O   UNL     1       3.171   7.384  27.760  0.00  0.00    -0.200 OA
BRANCH  22  25
HETATM   25  N   UNL     1       2.667   6.620  25.396  0.00  0.00    -0.307 N 
HETATM   26  C   UNL     1       2.086   5.466  24.660  0.00  0.00     0.163 C 
BRANCH  25  27
HETATM   27  C   UNL     1       4.102   6.883  25.053  0.00  0.00     0.087 C 
HETATM   28  C   UNL     1       4.963   5.668  25.455  0.00  0.00     0.032 C 
HETATM   29  C   UNL     1       4.350   7.100  23.558  0.00  0.00     0.032 C 
ENDBRANCH  25  27
ENDBRANCH  22  25
ENDBRANCH   1  22
BRANCH   6  30
HETATM   30  O   UNL     1       0.395   8.075  29.270  0.00  0.00    -0.359 OA
HETATM   31  H   UNL     1       1.251   7.608  29.312  0.00  0.00     0.217 HD
ENDBRANCH   6  30
TORSDOF 7
ENDMDL
MODEL 7
REMARK VINA RESULT:    -7.397      3.150      7.079
REMARK INTER + INTRA:         -12.588
REMARK INTER:                 -10.990
REMARK INTRA:                  -1.598
REMARK UNBOUND:                -2.596
REMARK  7 active torsions:
REMARK  status: ('A' for Active; 'I' for Inactive)
REMARK    1  A    between atoms: C_2  and  N_4 
REMARK    2  A    between atoms: N_4  and  S_6 
REMARK    3  A    between atoms: S_6  and  C_9 
REMARK    4  A    between atoms: C_11  and  C_12 
REMARK    5  A    between atoms: N_17  and  C_18 
REMARK    6  A    between atoms: C_25  and  O_26 
REMARK    7  A    between atoms: C_28  and  O_29 
ROOT
HETATM    1  C   UNL     1       1.990   8.230  27.692  0.00  0.00     0.113 A 
HETATM    2  C   UNL     1       2.891   8.096  26.616  0.00  0.00     0.042 A 
HETATM    3  C   UNL     1       2.564   8.497  25.305  0.00  0.00     0.023 A 
HETATM    4  C   UNL     1       1.265   8.983  25.098  0.00  0.00     0.078 A 
HETATM    5  C   UNL     1       0.355   9.098  26.155  0.00  0.00     0.075 A 
HETATM    6  C   UNL     1       0.718   8.738  27.455  0.00  0.00     0.091 A 
ENDROOT
BRANCH   3   7
HETATM    7  C   UNL     1       3.651   8.356  24.250  0.00  0.00     0.277 C 
HETATM    8  N   UNL     1       3.354   7.257  23.306  0.00  0.00    -0.156 NA
HETATM    9  N   UNL     1       3.538   7.644  22.119  0.00  0.00    -0.093 NA
HETATM   10  C   UNL     1       3.883   8.983  22.114  0.00  0.00     0.369 C 
HETATM   11  O   UNL     1       4.185   9.619  21.114  0.00  0.00    -0.243 OA
HETATM   12  N   UNL     1       3.834   9.478  23.401  0.00  0.00    -0.264 N 
BRANCH  12  13
HETATM   13  C   UNL     1       4.225  10.773  23.800  0.00  0.00     0.080 A 
HETATM   14  C   UNL     1       3.237  11.754  23.982  0.00  0.00     0.033 A 
HETATM   15  C   UNL     1       3.573  13.006  24.500  0.00  0.00     0.002 A 
HETATM   16  C   UNL     1       4.901  13.315  24.787  0.00  0.00     0.003 A 
HETATM   17  C   UNL     1       5.895  12.363  24.570  0.00  0.00     0.044 A 
HETATM   18  C   UNL     1       5.549  11.098  24.105  0.00  0.00     0.143 A 
HETATM   19  F   UNL     1       6.530  10.204  23.903  0.00  0.00    -0.204 F 
ENDBRANCH  12  13
ENDBRANCH   3   7
BRANCH   4  20
HETATM   20  O   UNL     1       0.782   9.391  23.888  0.00  0.00    -0.360 OA
HETATM   21  H   UNL     1       0.119   8.762  23.568  0.00  0.00     0.217 HD
ENDBRANCH   4  20
BRANCH   1  22
HETATM   22  S   UNL     1       2.650   7.991  29.337  0.00  0.00     0.263 S 
HETATM   23  O   UNL     1       1.592   7.552  30.216  0.00  0.00    -0.200 OA
HETATM   24  O   UNL     1       3.345   9.227  29.660  0.00  0.00    -0.200 OA
BRANCH  22  25
HETATM   25  N   UNL     1       3.861   6.793  29.171  0.00  0.00    -0.307 N 
HETATM   26  C   UNL     1       3.332   5.431  28.899  0.00  0.00     0.163 C 
BRANCH  25  27
HETATM   27  C   UNL     1       5.087   6.795  30.032  0.00  0.00     0.087 C 
HETATM   28  C   UNL     1       4.969   5.694  31.106  0.00  0.00     0.032 C 
HETATM   29  C   UNL     1       6.380   6.502  29.268  0.00  0.00     0.032 C 
ENDBRANCH  25  27
ENDBRANCH  22  25
ENDBRANCH   1  22
BRANCH   6  30
HETATM   30  O   UNL     1      -0.201   8.861  28.448  0.00  0.00    -0.359 OA
HETATM   31  H   UNL     1      -0.073   9.713  28.907  0.00  0.00     0.217 HD
ENDBRANCH   6  30
TORSDOF 7
ENDMDL
MODEL 8
REMARK VINA RESULT:    -7.286      2.993      6.495
REMARK INTER + INTRA:         -12.437
REMARK INTER:                 -10.623
REMARK INTRA:                  -1.814
REMARK UNBOUND:                -2.596
REMARK  7 active torsions:
REMARK  status: ('A' for Active; 'I' for Inactive)
REMARK    1  A    between atoms: C_2  and  N_4 
REMARK    2  A    between atoms: N_4  and  S_6 
REMARK    3  A    between atoms: S_6  and  C_9 
REMARK    4  A    between atoms: C_11  and  C_12 
REMARK    5  A    between atoms: N_17  and  C_18 
REMARK    6  A    between atoms: C_25  and  O_26 
REMARK    7  A    between atoms: C_28  and  O_29 
ROOT
HETATM    1  C   UNL     1       0.389   7.747  26.754  0.00  0.00     0.113 A 
HETATM    2  C   UNL     1       0.254   8.407  25.515  0.00  0.00     0.042 A 
HETATM    3  C   UNL     1      -0.290   9.702  25.406  0.00  0.00     0.023 A 
HETATM    4  C   UNL     1      -0.758  10.292  26.588  0.00  0.00     0.078 A 
HETATM    5  C   UNL     1      -0.651   9.637  27.820  0.00  0.00     0.075 A 
HETATM    6  C   UNL     1      -0.065   8.371  27.910  0.00  0.00     0.091 A 
ENDROOT
BRANCH   3   7
HETATM    7  C   UNL     1      -0.318  10.323  24.017  0.00  0.00     0.277 C 
HETATM    8  N   UNL     1      -1.609  10.992  23.746  0.00  0.00    -0.156 NA
HETATM    9  N   UNL     1      -1.409  12.133  23.246  0.00  0.00    -0.093 NA
HETATM   10  C   UNL     1      -0.051  12.387  23.194  0.00  0.00     0.369 C 
HETATM   11  O   UNL     1       0.451  13.386  22.699  0.00  0.00    -0.243 OA
HETATM   12  N   UNL     1       0.638  11.344  23.780  0.00  0.00    -0.264 N 
BRANCH  12  13
HETATM   13  C   UNL     1       2.040  11.201  23.816  0.00  0.00     0.080 A 
HETATM   14  C   UNL     1       2.622  10.074  23.214  0.00  0.00     0.033 A 
HETATM   15  C   UNL     1       4.010   9.963  23.117  0.00  0.00     0.002 A 
HETATM   16  C   UNL     1       4.834  10.942  23.667  0.00  0.00     0.003 A 
HETATM   17  C   UNL     1       4.267  12.045  24.304  0.00  0.00     0.044 A 
HETATM   18  C   UNL     1       2.883  12.179  24.351  0.00  0.00     0.143 A 
HETATM   19  F   UNL     1       2.368  13.249  24.976  0.00  0.00    -0.204 F 
ENDBRANCH  12  13
ENDBRANCH   3   7
BRANCH   4  20
HETATM   20  O   UNL     1      -1.332  11.529  26.654  0.00  0.00    -0.360 OA
HETATM   21  H   UNL     1      -0.709  12.200  26.338  0.00  0.00     0.217 HD
ENDBRANCH   4  20
BRANCH   1  22
HETATM   22  S   UNL     1       1.388   6.263  26.779  0.00  0.00     0.263 S 
HETATM   23  O   UNL     1       1.420   5.688  25.456  0.00  0.00    -0.200 OA
HETATM   24  O   UNL     1       0.858   5.458  27.868  0.00  0.00    -0.200 OA
BRANCH  22  25
HETATM   25  N   UNL     1       2.944   6.772  27.278  0.00  0.00    -0.307 N 
HETATM   26  C   UNL     1       4.044   6.318  26.387  0.00  0.00     0.163 C 
BRANCH  25  27
HETATM   27  C   UNL     1       3.328   6.812  28.725  0.00  0.00     0.087 C 
HETATM   28  C   UNL     1       4.747   6.234  28.902  0.00  0.00     0.032 C 
HETATM   29  C   UNL     1       3.371   8.223  29.315  0.00  0.00     0.032 C 
ENDBRANCH  25  27
ENDBRANCH  22  25
ENDBRANCH   1  22
BRANCH   6  30
HETATM   30  O   UNL     1       0.012   7.771  29.126  0.00  0.00    -0.359 OA
HETATM   31  H   UNL     1      -0.100   8.440  29.828  0.00  0.00     0.217 HD
ENDBRANCH   6  30
TORSDOF 7
ENDMDL
MODEL 9
REMARK VINA RESULT:    -7.129      1.382      2.009
REMARK INTER + INTRA:         -12.225
REMARK INTER:                  -9.629
REMARK INTRA:                  -2.596
REMARK UNBOUND:                -2.596
REMARK  7 active torsions:
REMARK  status: ('A' for Active; 'I' for Inactive)
REMARK    1  A    between atoms: C_2  and  N_4 
REMARK    2  A    between atoms: N_4  and  S_6 
REMARK    3  A    between atoms: S_6  and  C_9 
REMARK    4  A    between atoms: C_11  and  C_12 
REMARK    5  A    between atoms: N_17  and  C_18 
REMARK    6  A    between atoms: C_25  and  O_26 
REMARK    7  A    between atoms: C_28  and  O_29 
ROOT
HETATM    1  C   UNL     1       1.547  11.052  25.135  0.00  0.00     0.113 A 
HETATM    2  C   UNL     1       2.197  10.102  25.948  0.00  0.00     0.042 A 
HETATM    3  C   UNL     1       1.495   9.253  26.825  0.00  0.00     0.023 A 
HETATM    4  C   UNL     1       0.107   9.437  26.907  0.00  0.00     0.078 A 
HETATM    5  C   UNL     1      -0.546  10.394  26.122  0.00  0.00     0.075 A 
HETATM    6  C   UNL     1       0.167  11.193  25.225  0.00  0.00     0.091 A 
ENDROOT
BRANCH   3   7
HETATM    7  C   UNL     1       2.314   8.229  27.597  0.00  0.00     0.277 C 
HETATM    8  N   UNL     1       2.016   8.274  29.045  0.00  0.00    -0.156 NA
HETATM    9  N   UNL     1       1.843   7.105  29.488  0.00  0.00    -0.093 NA
HETATM   10  C   UNL     1       1.921   6.196  28.449  0.00  0.00     0.369 C 
HETATM   11  O   UNL     1       1.858   4.982  28.580  0.00  0.00    -0.243 OA
HETATM   12  N   UNL     1       2.080   6.871  27.255  0.00  0.00    -0.264 N 
BRANCH  12  13
HETATM   13  C   UNL     1       2.304   6.276  25.997  0.00  0.00     0.080 A 
HETATM   14  C   UNL     1       3.599   5.839  25.674  0.00  0.00     0.033 A 
HETATM   15  C   UNL     1       3.832   5.131  24.494  0.00  0.00     0.002 A 
HETATM   16  C   UNL     1       2.792   4.901  23.596  0.00  0.00     0.003 A 
HETATM   17  C   UNL     1       1.511   5.367  23.886  0.00  0.00     0.044 A 
HETATM   18  C   UNL     1       1.272   6.025  25.089  0.00  0.00     0.143 A 
HETATM   19  F   UNL     1       0.029   6.465  25.337  0.00  0.00    -0.204 F 
ENDBRANCH  12  13
ENDBRANCH   3   7
BRANCH   4  20
HETATM   20  O   UNL     1      -0.717   8.715  27.721  0.00  0.00    -0.360 OA
HETATM   21  H   UNL     1      -0.261   7.919  28.031  0.00  0.00     0.217 HD
ENDBRANCH   4  20
BRANCH   1  22
HETATM   22  S   UNL     1       2.520  11.821  23.846  0.00  0.00     0.263 S 
HETATM   23  O   UNL     1       2.577  13.245  24.077  0.00  0.00    -0.200 OA
HETATM   24  O   UNL     1       1.949  11.348  22.595  0.00  0.00    -0.200 OA
BRANCH  22  25
HETATM   25  N   UNL     1       4.071  11.106  23.962  0.00  0.00    -0.307 N 
HETATM   26  C   UNL     1       5.130  12.031  24.445  0.00  0.00     0.163 C 
BRANCH  25  27
HETATM   27  C   UNL     1       4.558  10.126  22.939  0.00  0.00     0.087 C 
HETATM   28  C   UNL     1       6.082  10.276  22.760  0.00  0.00     0.032 C 
HETATM   29  C   UNL     1       4.321   8.663  23.323  0.00  0.00     0.032 C 
ENDBRANCH  25  27
ENDBRANCH  22  25
ENDBRANCH   1  22
BRANCH   6  30
HETATM   30  O   UNL     1      -0.509  12.113  24.488  0.00  0.00    -0.359 OA
HETATM   31  H   UNL     1      -1.306  11.701  24.103  0.00  0.00     0.217 HD
ENDBRANCH   6  30
TORSDOF 7
ENDMDL
