MODEL 1
REMARK VINA RESULT:    -7.628      0.000      0.000
REMARK INTER + INTRA:         -10.393
REMARK INTER:                  -9.179
REMARK INTRA:                  -1.214
REMARK UNBOUND:                -0.982
REMARK  5 active torsions:
REMARK  status: ('A' for Active; 'I' for Inactive)
REMARK    1  A    between atoms: O_1  and  C_2 
REMARK    2  A    between atoms: C_4  and  O_5 
REMARK    3  A    between atoms: C_6  and  C_11 
REMARK    4  A    between atoms: C_8  and  C_9 
REMARK    5  A    between atoms: C_17  and  C_18 
ROOT
HETATM    1  C   UNL     1       7.735  12.678  21.091  0.00  0.00     0.103 A 
HETATM    2  N   UNL     1       8.820  12.539  20.308  0.00  0.00    -0.173 NA
HETATM    3  N   UNL     1       9.519  13.652  20.484  0.00  0.00    -0.281 N 
HETATM    4  H   UNL     1      10.380  13.751  19.958  0.00  0.00     0.189 HD
HETATM    5  C   UNL     1       8.991  14.518  21.396  0.00  0.00     0.037 A 
HETATM    6  C   UNL     1       9.694  15.798  21.665  0.00  0.00     0.070 C 
HETATM    7  C   UNL     1       7.819  13.913  21.849  0.00  0.00     0.032 A 
ENDROOT
BRANCH   1   8
HETATM    8  C   UNL     1       6.784  11.551  21.161  0.00  0.00     0.029 A 
HETATM    9  C   UNL     1       6.495  10.732  20.053  0.00  0.00     0.081 A 
HETATM   10  C   UNL     1       5.720   9.577  20.196  0.00  0.00     0.074 A 
HETATM   11  C   UNL     1       5.219   9.230  21.451  0.00  0.00     0.074 A 
HETATM   12  C   UNL     1       5.457  10.033  22.571  0.00  0.00    -0.024 A 
HETATM   13  C   UNL     1       6.233  11.197  22.407  0.00  0.00     0.026 A 
BRANCH   9  14
HETATM   14  O   UNL     1       6.967  11.039  18.803  0.00  0.00    -0.360 OA
HETATM   15  H   UNL     1       7.642  10.392  18.552  0.00  0.00     0.217 HD
ENDBRANCH   9  14
BRANCH  11  16
HETATM   16  O   UNL     1       4.506   8.073  21.598  0.00  0.00    -0.360 OA
HETATM   17  H   UNL     1       5.113   7.318  21.532  0.00  0.00     0.217 HD
ENDBRANCH  11  16
BRANCH  12  18
HETATM   18  C   UNL     1       5.041   9.613  23.961  0.00  0.00     0.037 C 
HETATM   19  C   UNL     1       4.518  10.738  24.845  0.00  0.00     0.010 C 
ENDBRANCH  12  18
ENDBRANCH   1   8
BRANCH   7  20
HETATM   20  C   UNL     1       6.956  14.453  22.906  0.00  0.00     0.017 A 
HETATM   21  C   UNL     1       7.411  14.635  24.218  0.00  0.00     0.127 A 
HETATM   22  F   UNL     1       8.631  14.219  24.589  0.00  0.00    -0.205 F 
HETATM   23  C   UNL     1       6.626  15.273  25.185  0.00  0.00     0.043 A 
HETATM   24  C   UNL     1       5.340  15.703  24.871  0.00  0.00     0.003 A 
HETATM   25  C   UNL     1       4.846  15.495  23.588  0.00  0.00     0.001 A 
HETATM   26  C   UNL     1       5.653  14.896  22.612  0.00  0.00     0.015 A 
ENDBRANCH   7  20
TORSDOF 5
ENDMDL
MODEL 2
REMARK VINA RESULT:    -7.566      1.372      2.356
REMARK INTER + INTRA:         -10.317
REMARK INTER:                  -9.425
REMARK INTRA:                  -0.892
REMARK UNBOUND:                -0.982
REMARK  5 active torsions:
REMARK  status: ('A' for Active; 'I' for Inactive)
REMARK    1  A    between atoms: O_1  and  C_2 
REMARK    2  A    between atoms: C_4  and  O_5 
REMARK    3  A    between atoms: C_6  and  C_11 
REMARK    4  A    between atoms: C_8  and  C_9 
REMARK    5  A    between atoms: C_17  and  C_18 
ROOT
HETATM    1  C   UNL     1       8.002  13.003  21.236  0.00  0.00     0.103 A 
HETATM    2  N   UNL     1       9.179  12.986  20.587  0.00  0.00    -0.173 NA
HETATM    3  N   UNL     1       9.746  14.152  20.865  0.00  0.00    -0.281 N 
HETATM    4  H   UNL     1      10.650  14.344  20.447  0.00  0.00     0.189 HD
HETATM    5  C   UNL     1       9.036  14.940  21.722  0.00  0.00     0.037 A 
HETATM    6  C   UNL     1       9.579  16.271  22.096  0.00  0.00     0.070 C 
HETATM    7  C   UNL     1       7.879  14.219  22.019  0.00  0.00     0.032 A 
ENDROOT
BRANCH   1   8
HETATM    8  C   UNL     1       7.159  11.793  21.171  0.00  0.00     0.029 A 
HETATM    9  C   UNL     1       6.822  11.042  22.314  0.00  0.00     0.081 A 
HETATM   10  C   UNL     1       5.889  10.003  22.241  0.00  0.00     0.074 A 
HETATM   11  C   UNL     1       5.286   9.699  21.021  0.00  0.00     0.074 A 
HETATM   12  C   UNL     1       5.615  10.400  19.857  0.00  0.00    -0.024 A 
HETATM   13  C   UNL     1       6.563  11.438  19.947  0.00  0.00     0.026 A 
BRANCH   9  14
HETATM   14  O   UNL     1       7.394  11.308  23.531  0.00  0.00    -0.360 OA
HETATM   15  H   UNL     1       7.232  10.562  24.126  0.00  0.00     0.217 HD
ENDBRANCH   9  14
BRANCH  11  16
HETATM   16  O   UNL     1       4.335   8.717  20.963  0.00  0.00    -0.360 OA
HETATM   17  H   UNL     1       4.736   7.874  21.229  0.00  0.00     0.217 HD
ENDBRANCH  11  16
BRANCH  12  18
HETATM   18  C   UNL     1       4.882  10.181  18.554  0.00  0.00     0.037 C 
HETATM   19  C   UNL     1       4.136  11.398  18.021  0.00  0.00     0.010 C 
ENDBRANCH  12  18
ENDBRANCH   1   8
BRANCH   7  20
HETATM   20  C   UNL     1       6.851  14.648  22.975  0.00  0.00     0.017 A 
HETATM   21  C   UNL     1       7.164  15.018  24.289  0.00  0.00     0.127 A 
HETATM   22  F   UNL     1       8.412  14.891  24.763  0.00  0.00    -0.205 F 
HETATM   23  C   UNL     1       6.199  15.552  25.150  0.00  0.00     0.043 A 
HETATM   24  C   UNL     1       4.879  15.683  24.727  0.00  0.00     0.003 A 
HETATM   25  C   UNL     1       4.531  15.282  23.443  0.00  0.00     0.001 A 
HETATM   26  C   UNL     1       5.511  14.791  22.570  0.00  0.00     0.015 A 
ENDBRANCH   7  20
TORSDOF 5
ENDMDL
MODEL 3
REMARK VINA RESULT:    -7.325      2.767      4.165
REMARK INTER + INTRA:         -10.020
REMARK INTER:                  -9.009
REMARK INTRA:                  -1.011
REMARK UNBOUND:                -0.982
REMARK  5 active torsions:
REMARK  status: ('A' for Active; 'I' for Inactive)
REMARK    1  A    between atoms: O_1  and  C_2 
REMARK    2  A    between atoms: C_4  and  O_5 
REMARK    3  A    between atoms: C_6  and  C_11 
REMARK    4  A    between atoms: C_8  and  C_9 
REMARK    5  A    between atoms: C_17  and  C_18 
ROOT
HETATM    1  C   UNL     1       4.666  13.660  22.799  0.00  0.00     0.103 A 
HETATM    2  N   UNL     1       3.334  13.762  22.950  0.00  0.00    -0.173 NA
HETATM    3  N   UNL     1       3.161  14.685  23.885  0.00  0.00    -0.281 N 
HETATM    4  H   UNL     1       2.208  14.900  24.160  0.00  0.00     0.189 HD
HETATM    5  C   UNL     1       4.312  15.261  24.338  0.00  0.00     0.037 A 
HETATM    6  C   UNL     1       4.230  16.305  25.390  0.00  0.00     0.070 C 
HETATM    7  C   UNL     1       5.342  14.636  23.636  0.00  0.00     0.032 A 
ENDROOT
BRANCH   1   8
HETATM    8  C   UNL     1       5.177  12.742  21.761  0.00  0.00     0.029 A 
HETATM    9  C   UNL     1       4.350  12.184  20.768  0.00  0.00     0.081 A 
HETATM   10  C   UNL     1       4.893  11.456  19.706  0.00  0.00     0.074 A 
HETATM   11  C   UNL     1       6.274  11.272  19.627  0.00  0.00     0.074 A 
HETATM   12  C   UNL     1       7.128  11.783  20.610  0.00  0.00    -0.024 A 
HETATM   13  C   UNL     1       6.562  12.508  21.677  0.00  0.00     0.026 A 
BRANCH   9  14
HETATM   14  O   UNL     1       2.988  12.341  20.810  0.00  0.00    -0.360 OA
HETATM   15  H   UNL     1       2.575  11.662  20.258  0.00  0.00     0.217 HD
ENDBRANCH   9  14
BRANCH  11  16
HETATM   16  O   UNL     1       6.807  10.604  18.560  0.00  0.00    -0.360 OA
HETATM   17  H   UNL     1       6.782  11.183  17.781  0.00  0.00     0.217 HD
ENDBRANCH  11  16
BRANCH  12  18
HETATM   18  C   UNL     1       8.631  11.714  20.480  0.00  0.00     0.037 C 
HETATM   19  C   UNL     1       9.316  13.043  20.190  0.00  0.00     0.010 C 
ENDBRANCH  12  18
ENDBRANCH   1   8
BRANCH   7  20
HETATM   20  C   UNL     1       6.761  14.995  23.740  0.00  0.00     0.017 A 
HETATM   21  C   UNL     1       7.533  14.658  24.859  0.00  0.00     0.127 A 
HETATM   22  F   UNL     1       6.976  14.083  25.935  0.00  0.00    -0.205 F 
HETATM   23  C   UNL     1       8.913  14.887  24.893  0.00  0.00     0.043 A 
HETATM   24  C   UNL     1       9.548  15.506  23.819  0.00  0.00     0.003 A 
HETATM   25  C   UNL     1       8.797  15.892  22.715  0.00  0.00     0.001 A 
HETATM   26  C   UNL     1       7.424  15.620  22.668  0.00  0.00     0.015 A 
ENDBRANCH   7  20
TORSDOF 5
ENDMDL
MODEL 4
REMARK VINA RESULT:    -7.258      2.446      5.440
REMARK INTER + INTRA:          -9.937
REMARK INTER:                  -8.497
REMARK INTRA:                  -1.440
REMARK UNBOUND:                -0.982
REMARK  5 active torsions:
REMARK  status: ('A' for Active; 'I' for Inactive)
REMARK    1  A    between atoms: O_1  and  C_2 
REMARK    2  A    between atoms: C_4  and  O_5 
REMARK    3  A    between atoms: C_6  and  C_11 
REMARK    4  A    between atoms: C_8  and  C_9 
REMARK    5  A    between atoms: C_17  and  C_18 
ROOT
HETATM    1  C   UNL     1       6.737  11.407  20.330  0.00  0.00     0.103 A 
HETATM    2  N   UNL     1       6.921  11.279  19.004  0.00  0.00    -0.173 NA
HETATM    3  N   UNL     1       6.161  10.253  18.646  0.00  0.00    -0.281 N 
HETATM    4  H   UNL     1       6.174   9.980  17.669  0.00  0.00     0.189 HD
HETATM    5  C   UNL     1       5.420   9.713  19.656  0.00  0.00     0.037 A 
HETATM    6  C   UNL     1       4.537   8.556  19.363  0.00  0.00     0.070 C 
HETATM    7  C   UNL     1       5.744  10.454  20.793  0.00  0.00     0.032 A 
ENDROOT
BRANCH   1   8
HETATM    8  C   UNL     1       7.412  12.526  21.017  0.00  0.00     0.029 A 
HETATM    9  C   UNL     1       8.773  12.826  20.821  0.00  0.00     0.081 A 
HETATM   10  C   UNL     1       9.337  13.988  21.357  0.00  0.00     0.074 A 
HETATM   11  C   UNL     1       8.545  14.862  22.101  0.00  0.00     0.074 A 
HETATM   12  C   UNL     1       7.196  14.586  22.345  0.00  0.00    -0.024 A 
HETATM   13  C   UNL     1       6.647  13.406  21.805  0.00  0.00     0.026 A 
BRANCH   9  14
HETATM   14  O   UNL     1       9.586  11.992  20.098  0.00  0.00    -0.360 OA
HETATM   15  H   UNL     1       9.597  11.119  20.518  0.00  0.00     0.217 HD
ENDBRANCH   9  14
BRANCH  11  16
HETATM   16  O   UNL     1       9.086  16.023  22.579  0.00  0.00    -0.360 OA
HETATM   17  H   UNL     1       8.635  16.776  22.165  0.00  0.00     0.217 HD
ENDBRANCH  11  16
BRANCH  12  18
HETATM   18  C   UNL     1       6.286  15.577  23.032  0.00  0.00     0.037 C 
HETATM   19  C   UNL     1       4.879  15.069  23.320  0.00  0.00     0.010 C 
ENDBRANCH  12  18
ENDBRANCH   1   8
BRANCH   7  20
HETATM   20  C   UNL     1       5.122  10.276  22.109  0.00  0.00     0.017 A 
HETATM   21  C   UNL     1       4.023  11.040  22.522  0.00  0.00     0.127 A 
HETATM   22  F   UNL     1       3.559  12.046  21.767  0.00  0.00    -0.205 F 
HETATM   23  C   UNL     1       3.354  10.774  23.722  0.00  0.00     0.043 A 
HETATM   24  C   UNL     1       3.803   9.760  24.565  0.00  0.00     0.003 A 
HETATM   25  C   UNL     1       4.920   9.016  24.201  0.00  0.00     0.001 A 
HETATM   26  C   UNL     1       5.557   9.258  22.977  0.00  0.00     0.015 A 
ENDBRANCH   7  20
TORSDOF 5
ENDMDL
MODEL 5
REMARK VINA RESULT:    -7.228      3.021      5.289
REMARK INTER + INTRA:          -9.900
REMARK INTER:                  -8.401
REMARK INTRA:                  -1.499
REMARK UNBOUND:                -0.982
REMARK  5 active torsions:
REMARK  status: ('A' for Active; 'I' for Inactive)
REMARK    1  A    between atoms: O_1  and  C_2 
REMARK    2  A    between atoms: C_4  and  O_5 
REMARK    3  A    between atoms: C_6  and  C_11 
REMARK    4  A    between atoms: C_8  and  C_9 
REMARK    5  A    between atoms: C_17  and  C_18 
ROOT
HETATM    1  C   UNL     1       5.252  11.056  23.344  0.00  0.00     0.103 A 
HETATM    2  N   UNL     1       5.553   9.763  23.552  0.00  0.00    -0.173 NA
HETATM    3  N   UNL     1       4.436   9.218  24.014  0.00  0.00    -0.281 N 
HETATM    4  H   UNL     1       4.461   8.232  24.253  0.00  0.00     0.189 HD
HETATM    5  C   UNL     1       3.371  10.067  24.076  0.00  0.00     0.037 A 
HETATM    6  C   UNL     1       2.072   9.558  24.584  0.00  0.00     0.070 C 
HETATM    7  C   UNL     1       3.848  11.296  23.621  0.00  0.00     0.032 A 
ENDROOT
BRANCH   1   8
HETATM    8  C   UNL     1       6.294  11.923  22.756  0.00  0.00     0.029 A 
HETATM    9  C   UNL     1       7.141  11.492  21.718  0.00  0.00     0.081 A 
HETATM   10  C   UNL     1       8.000  12.388  21.074  0.00  0.00     0.074 A 
HETATM   11  C   UNL     1       8.026  13.727  21.467  0.00  0.00     0.074 A 
HETATM   12  C   UNL     1       7.222  14.188  22.514  0.00  0.00    -0.024 A 
HETATM   13  C   UNL     1       6.369  13.270  23.157  0.00  0.00     0.026 A 
BRANCH   9  14
HETATM   14  O   UNL     1       7.148  10.186  21.304  0.00  0.00    -0.360 OA
HETATM   15  H   UNL     1       6.762  10.132  20.418  0.00  0.00     0.217 HD
ENDBRANCH   9  14
BRANCH  11  16
HETATM   16  O   UNL     1       8.828  14.611  20.801  0.00  0.00    -0.360 OA
HETATM   17  H   UNL     1       9.330  15.131  21.448  0.00  0.00     0.217 HD
ENDBRANCH  11  16
BRANCH  12  18
HETATM   18  C   UNL     1       7.132  15.653  22.870  0.00  0.00     0.037 C 
HETATM   19  C   UNL     1       5.834  16.074  23.547  0.00  0.00     0.010 C 
ENDBRANCH  12  18
ENDBRANCH   1   8
BRANCH   7  20
HETATM   20  C   UNL     1       3.022  12.495  23.438  0.00  0.00     0.017 A 
HETATM   21  C   UNL     1       3.064  13.572  24.334  0.00  0.00     0.127 A 
HETATM   22  F   UNL     1       3.787  13.504  25.461  0.00  0.00    -0.205 F 
HETATM   23  C   UNL     1       2.375  14.763  24.081  0.00  0.00     0.043 A 
HETATM   24  C   UNL     1       1.584  14.887  22.942  0.00  0.00     0.003 A 
HETATM   25  C   UNL     1       1.487  13.818  22.059  0.00  0.00     0.001 A 
HETATM   26  C   UNL     1       2.216  12.644  22.295  0.00  0.00     0.015 A 
ENDBRANCH   7  20
TORSDOF 5
ENDMDL
MODEL 6
REMARK VINA RESULT:    -7.224      1.640      1.986
REMARK INTER + INTRA:          -9.896
REMARK INTER:                  -9.016
REMARK INTRA:                  -0.879
REMARK UNBOUND:                -0.982
REMARK  5 active torsions:
REMARK  status: ('A' for Active; 'I' for Inactive)
REMARK    1  A    between atoms: O_1  and  C_2 
REMARK    2  A    between atoms: C_4  and  O_5 
REMARK    3  A    between atoms: C_6  and  C_11 
REMARK    4  A    between atoms: C_8  and  C_9 
REMARK    5  A    between atoms: C_17  and  C_18 
ROOT
HETATM    1  C   UNL     1       8.055  12.681  21.192  0.00  0.00     0.103 A 
HETATM    2  N   UNL     1       9.243  12.708  20.562  0.00  0.00    -0.173 NA
HETATM    3  N   UNL     1       9.651  13.966  20.645  0.00  0.00    -0.281 N 
HETATM    4  H   UNL     1      10.535  14.201  20.207  0.00  0.00     0.189 HD
HETATM    5  C   UNL     1       8.825  14.788  21.355  0.00  0.00     0.037 A 
HETATM    6  C   UNL     1       9.188  16.219  21.505  0.00  0.00     0.070 C 
HETATM    7  C   UNL     1       7.761  13.984  21.762  0.00  0.00     0.032 A 
ENDROOT
BRANCH   1   8
HETATM    8  C   UNL     1       7.372  11.379  21.325  0.00  0.00     0.029 A 
HETATM    9  C   UNL     1       6.731  10.745  20.243  0.00  0.00     0.081 A 
HETATM   10  C   UNL     1       6.240   9.441  20.364  0.00  0.00     0.074 A 
HETATM   11  C   UNL     1       6.379   8.758  21.572  0.00  0.00     0.074 A 
HETATM   12  C   UNL     1       6.982   9.363  22.679  0.00  0.00    -0.024 A 
HETATM   13  C   UNL     1       7.463  10.680  22.542  0.00  0.00     0.026 A 
BRANCH   9  14
HETATM   14  O   UNL     1       6.572  11.383  19.041  0.00  0.00    -0.360 OA
HETATM   15  H   UNL     1       7.224  11.040  18.412  0.00  0.00     0.217 HD
ENDBRANCH   9  14
BRANCH  11  16
HETATM   16  O   UNL     1       5.945   7.465  21.670  0.00  0.00    -0.360 OA
HETATM   17  H   UNL     1       5.379   7.263  20.909  0.00  0.00     0.217 HD
ENDBRANCH  11  16
BRANCH  12  18
HETATM   18  C   UNL     1       7.264   8.602  23.953  0.00  0.00     0.037 C 
HETATM   19  C   UNL     1       8.606   7.883  23.992  0.00  0.00     0.010 C 
ENDBRANCH  12  18
ENDBRANCH   1   8
BRANCH   7  20
HETATM   20  C   UNL     1       6.662  14.429  22.626  0.00  0.00     0.017 A 
HETATM   21  C   UNL     1       5.341  14.003  22.431  0.00  0.00     0.127 A 
HETATM   22  F   UNL     1       5.009  13.249  21.373  0.00  0.00    -0.205 F 
HETATM   23  C   UNL     1       4.326  14.326  23.337  0.00  0.00     0.043 A 
HETATM   24  C   UNL     1       4.600  15.129  24.441  0.00  0.00     0.003 A 
HETATM   25  C   UNL     1       5.893  15.604  24.634  0.00  0.00     0.001 A 
HETATM   26  C   UNL     1       6.915  15.239  23.748  0.00  0.00     0.015 A 
ENDBRANCH   7  20
TORSDOF 5
ENDMDL
MODEL 7
REMARK VINA RESULT:    -6.989      2.793      3.900
REMARK INTER + INTRA:          -9.605
REMARK INTER:                  -8.083
REMARK INTRA:                  -1.523
REMARK UNBOUND:                -0.982
REMARK  5 active torsions:
REMARK  status: ('A' for Active; 'I' for Inactive)
REMARK    1  A    between atoms: O_1  and  C_2 
REMARK    2  A    between atoms: C_4  and  O_5 
REMARK    3  A    between atoms: C_6  and  C_11 
REMARK    4  A    between atoms: C_8  and  C_9 
REMARK    5  A    between atoms: C_17  and  C_18 
ROOT
HETATM    1  C   UNL     1       4.933  12.731  24.024  0.00  0.00     0.103 A 
HETATM    2  N   UNL     1       3.618  12.692  24.303  0.00  0.00    -0.173 NA
HETATM    3  N   UNL     1       3.309  13.923  24.687  0.00  0.00    -0.281 N 
HETATM    4  H   UNL     1       2.349  14.100  24.962  0.00  0.00     0.189 HD
HETATM    5  C   UNL     1       4.339  14.815  24.625  0.00  0.00     0.037 A 
HETATM    6  C   UNL     1       4.100  16.221  25.037  0.00  0.00     0.070 C 
HETATM    7  C   UNL     1       5.437  14.085  24.170  0.00  0.00     0.032 A 
ENDROOT
BRANCH   1   8
HETATM    8  C   UNL     1       5.565  11.505  23.498  0.00  0.00     0.029 A 
HETATM    9  C   UNL     1       5.038  10.788  22.407  0.00  0.00     0.081 A 
HETATM   10  C   UNL     1       5.750   9.731  21.832  0.00  0.00     0.074 A 
HETATM   11  C   UNL     1       6.997   9.374  22.346  0.00  0.00     0.074 A 
HETATM   12  C   UNL     1       7.541  10.041  23.448  0.00  0.00    -0.024 A 
HETATM   13  C   UNL     1       6.807  11.098  24.020  0.00  0.00     0.026 A 
BRANCH   9  14
HETATM   14  O   UNL     1       3.816  11.106  21.874  0.00  0.00    -0.360 OA
HETATM   15  H   UNL     1       3.806  12.046  21.644  0.00  0.00     0.217 HD
ENDBRANCH   9  14
BRANCH  11  16
HETATM   16  O   UNL     1       7.713   8.374  21.749  0.00  0.00    -0.360 OA
HETATM   17  H   UNL     1       7.336   7.518  22.005  0.00  0.00     0.217 HD
ENDBRANCH  11  16
BRANCH  12  18
HETATM   18  C   UNL     1       8.942   9.764  23.940  0.00  0.00     0.037 C 
HETATM   19  C   UNL     1       9.736  10.996  24.354  0.00  0.00     0.010 C 
ENDBRANCH  12  18
ENDBRANCH   1   8
BRANCH   7  20
HETATM   20  C   UNL     1       6.754  14.658  23.874  0.00  0.00     0.017 A 
HETATM   21  C   UNL     1       7.799  14.645  24.807  0.00  0.00     0.127 A 
HETATM   22  F   UNL     1       7.602  14.201  26.057  0.00  0.00    -0.205 F 
HETATM   23  C   UNL     1       9.088  15.073  24.471  0.00  0.00     0.043 A 
HETATM   24  C   UNL     1       9.351  15.572  23.198  0.00  0.00     0.003 A 
HETATM   25  C   UNL     1       8.322  15.638  22.265  0.00  0.00     0.001 A 
HETATM   26  C   UNL     1       7.045  15.166  22.594  0.00  0.00     0.015 A 
ENDBRANCH   7  20
TORSDOF 5
ENDMDL
MODEL 8
REMARK VINA RESULT:    -6.935      2.572      3.995
REMARK INTER + INTRA:          -9.539
REMARK INTER:                  -8.389
REMARK INTRA:                  -1.150
REMARK UNBOUND:                -0.982
REMARK  5 active torsions:
REMARK  status: ('A' for Active; 'I' for Inactive)
REMARK    1  A    between atoms: O_1  and  C_2 
REMARK    2  A    between atoms: C_4  and  O_5 
REMARK    3  A    between atoms: C_6  and  C_11 
REMARK    4  A    between atoms: C_8  and  C_9 
REMARK    5  A    between atoms: C_17  and  C_18 
ROOT
HETATM    1  C   UNL     1       4.721  13.172  22.592  0.00  0.00     0.103 A 
HETATM    2  N   UNL     1       3.384  13.321  22.581  0.00  0.00    -0.173 NA
HETATM    3  N   UNL     1       3.152  14.428  23.273  0.00  0.00    -0.281 N 
HETATM    4  H   UNL     1       2.185  14.708  23.396  0.00  0.00     0.189 HD
HETATM    5  C   UNL     1       4.272  15.075  23.705  0.00  0.00     0.037 A 
HETATM    6  C   UNL     1       4.125  16.324  24.494  0.00  0.00     0.070 C 
HETATM    7  C   UNL     1       5.344  14.299  23.263  0.00  0.00     0.032 A 
ENDROOT
BRANCH   1   8
HETATM    8  C   UNL     1       5.298  12.045  21.834  0.00  0.00     0.029 A 
HETATM    9  C   UNL     1       6.005  10.997  22.454  0.00  0.00     0.081 A 
HETATM   10  C   UNL     1       6.393   9.866  21.730  0.00  0.00     0.074 A 
HETATM   11  C   UNL     1       6.083   9.772  20.373  0.00  0.00     0.074 A 
HETATM   12  C   UNL     1       5.410  10.805  19.713  0.00  0.00    -0.024 A 
HETATM   13  C   UNL     1       5.034  11.941  20.456  0.00  0.00     0.026 A 
BRANCH   9  14
HETATM   14  O   UNL     1       6.331  11.052  23.784  0.00  0.00    -0.360 OA
HETATM   15  H   UNL     1       5.600  10.686  24.304  0.00  0.00     0.217 HD
ENDBRANCH   9  14
BRANCH  11  16
HETATM   16  O   UNL     1       6.417   8.642  19.680  0.00  0.00    -0.360 OA
HETATM   17  H   UNL     1       5.956   8.647  18.826  0.00  0.00     0.217 HD
ENDBRANCH  11  16
BRANCH  12  18
HETATM   18  C   UNL     1       4.945  10.672  18.281  0.00  0.00     0.037 C 
HETATM   19  C   UNL     1       3.833  11.628  17.873  0.00  0.00     0.010 C 
ENDBRANCH  12  18
ENDBRANCH   1   8
BRANCH   7  20
HETATM   20  C   UNL     1       6.758  14.656  23.432  0.00  0.00     0.017 A 
HETATM   21  C   UNL     1       7.466  14.357  24.602  0.00  0.00     0.127 A 
HETATM   22  F   UNL     1       6.848  13.824  25.666  0.00  0.00    -0.205 F 
HETATM   23  C   UNL     1       8.844  14.581  24.703  0.00  0.00     0.043 A 
HETATM   24  C   UNL     1       9.539  15.158  23.644  0.00  0.00     0.003 A 
HETATM   25  C   UNL     1       8.852  15.507  22.486  0.00  0.00     0.001 A 
HETATM   26  C   UNL     1       7.481  15.238  22.375  0.00  0.00     0.015 A 
ENDBRANCH   7  20
TORSDOF 5
ENDMDL
MODEL 9
REMARK VINA RESULT:    -6.910      1.951      2.812
REMARK INTER + INTRA:          -9.508
REMARK INTER:                  -8.526
REMARK INTRA:                  -0.982
REMARK UNBOUND:                -0.982
REMARK  5 active torsions:
REMARK  status: ('A' for Active; 'I' for Inactive)
REMARK    1  A    between atoms: O_1  and  C_2 
REMARK    2  A    between atoms: C_4  and  O_5 
REMARK    3  A    between atoms: C_6  and  C_11 
REMARK    4  A    between atoms: C_8  and  C_9 
REMARK    5  A    between atoms: C_17  and  C_18 
ROOT
HETATM    1  C   UNL     1       8.206  12.696  21.886  0.00  0.00     0.103 A 
HETATM    2  N   UNL     1       9.456  12.717  21.394  0.00  0.00    -0.173 NA
HETATM    3  N   UNL     1       9.739  14.000  21.217  0.00  0.00    -0.281 N 
HETATM    4  H   UNL     1      10.647  14.230  20.830  0.00  0.00     0.189 HD
HETATM    5  C   UNL     1       8.760  14.860  21.622  0.00  0.00     0.037 A 
HETATM    6  C   UNL     1       8.973  16.320  21.465  0.00  0.00     0.070 C 
HETATM    7  C   UNL     1       7.727  14.051  22.097  0.00  0.00     0.032 A 
ENDROOT
BRANCH   1   8
HETATM    8  C   UNL     1       7.628  11.388  22.254  0.00  0.00     0.029 A 
HETATM    9  C   UNL     1       7.452  10.986  23.592  0.00  0.00     0.081 A 
HETATM   10  C   UNL     1       6.752   9.817  23.904  0.00  0.00     0.074 A 
HETATM   11  C   UNL     1       6.223   9.032  22.879  0.00  0.00     0.074 A 
HETATM   12  C   UNL     1       6.401   9.380  21.536  0.00  0.00    -0.024 A 
HETATM   13  C   UNL     1       7.116  10.557  21.240  0.00  0.00     0.026 A 
BRANCH   9  14
HETATM   14  O   UNL     1       7.959  11.728  24.627  0.00  0.00    -0.360 OA
HETATM   15  H   UNL     1       8.404  12.509  24.268  0.00  0.00     0.217 HD
ENDBRANCH   9  14
BRANCH  11  16
HETATM   16  O   UNL     1       5.494   7.918  23.189  0.00  0.00    -0.360 OA
HETATM   17  H   UNL     1       5.771   7.591  24.060  0.00  0.00     0.217 HD
ENDBRANCH  11  16
BRANCH  12  18
HETATM   18  C   UNL     1       5.728   8.624  20.416  0.00  0.00     0.037 C 
HETATM   19  C   UNL     1       5.674   9.358  19.082  0.00  0.00     0.010 C 
ENDBRANCH  12  18
ENDBRANCH   1   8
BRANCH   7  20
HETATM   20  C   UNL     1       6.493  14.551  22.712  0.00  0.00     0.017 A 
HETATM   21  C   UNL     1       5.234  14.027  22.389  0.00  0.00     0.127 A 
HETATM   22  F   UNL     1       5.096  13.114  21.416  0.00  0.00    -0.205 F 
HETATM   23  C   UNL     1       4.079  14.417  23.075  0.00  0.00     0.043 A 
HETATM   24  C   UNL     1       4.151  15.381  24.077  0.00  0.00     0.003 A 
HETATM   25  C   UNL     1       5.380  15.951  24.388  0.00  0.00     0.001 A 
HETATM   26  C   UNL     1       6.540  15.524  23.727  0.00  0.00     0.015 A 
ENDBRANCH   7  20
TORSDOF 5
ENDMDL
