MODEL 1
REMARK VINA RESULT:    -5.907      0.000      0.000
REMARK INTER + INTRA:          -8.883
REMARK INTER:                  -7.904
REMARK INTRA:                  -0.979
REMARK UNBOUND:                -1.250
REMARK  5 active torsions:
REMARK  status: ('A' for Active; 'I' for Inactive)
REMARK    1  A    between atoms: N8_1  and  C24_2 
REMARK    2  A    between atoms: N8_1  and  C7_8 
REMARK    3  A    between atoms: C2_13  and  N1_14 
REMARK    4  A    between atoms: N1_14  and  C17_15 
REMARK    5  A    between atoms: C14_16  and  C13_19 
ROOT
ATOM      1  C17 FTA A   1       4.282  16.108  19.999  1.00  0.00     0.142 C 
ATOM      2  C14 FTA A   1       4.805  17.337  19.818  1.00  0.00     0.158 C 
ATOM      3  C18 FTA A   1       4.024  18.514  20.136  1.00  0.00     0.069 C 
ATOM      4  N21 FTA A   1       3.261  19.370  20.379  1.00  0.00    -0.197 NA
ENDROOT
BRANCH   2   5
ATOM      5  C13 FTA A   1       6.188  17.472  19.307  1.00  0.00     0.197 A 
ATOM      6  N15 FTA A   1       6.691  16.906  18.138  1.00  0.00    -0.093 NA
ATOM      7  N19 FTA A   1       8.037  17.240  18.057  1.00  0.00    -0.231 N 
ATOM      8  N20 FTA A   1       8.383  18.005  19.162  1.00  0.00    -0.017 NA
ATOM      9  H15 FTA A   1       8.677  16.964  17.299  1.00  0.00     0.200 HD
ATOM     10  N16 FTA A   1       7.235  18.159  19.933  1.00  0.00    -0.090 NA
ENDBRANCH   2   5
BRANCH   1  11
ATOM     11  N1  FTA A   1       4.297  15.236  18.973  1.00  0.00    -0.389 N 
ATOM     12  H11 FTA A   1       5.078  14.564  18.931  1.00  0.00     0.159 HD
BRANCH  11  13
ATOM     13  C2  FTA A   1       3.319  15.171  17.944  1.00  0.00     0.028 A 
ATOM     14  C4  FTA A   1       3.154  16.194  17.013  1.00  0.00     0.031 A 
ATOM     15  C6  FTA A   1       2.030  16.175  16.175  1.00  0.00     0.031 A 
ATOM     16  C7  FTA A   1       1.071  15.168  16.245  1.00  0.00     0.032 A 
ATOM     17  C5  FTA A   1       1.263  14.146  17.158  1.00  0.00     0.031 A 
ATOM     18  C3  FTA A   1       2.363  14.153  18.006  1.00  0.00     0.031 A 
BRANCH  16  19
ATOM     19  N8  FTA A   1      -0.169  15.238  15.561  1.00  0.00    -0.356 N 
ATOM     20  H1  FTA A   1      -1.013  15.406  16.128  1.00  0.00     0.166 HD
BRANCH  19  21
ATOM     21  C24 FTA A   1      -0.345  15.095  14.151  1.00  0.00     0.032 A 
ATOM     22  C26 FTA A   1      -1.535  15.409  13.538  1.00  0.00     0.029 A 
ATOM     23  C28 FTA A   1      -1.698  15.086  12.204  1.00  0.00     0.002 A 
ATOM     24  C30 FTA A   1      -0.697  14.489  11.457  1.00  0.00     0.000 A 
ATOM     25  C29 FTA A   1       0.506  14.206  12.046  1.00  0.00     0.002 A 
ATOM     26  C27 FTA A   1       0.673  14.528  13.398  1.00  0.00     0.029 A 
ENDBRANCH  19  21
ENDBRANCH  16  19
ENDBRANCH  11  13
ENDBRANCH   1  11
TORSDOF 5
ENDMDL
MODEL 2
REMARK VINA RESULT:    -5.807      1.323      2.715
REMARK INTER + INTRA:          -8.754
REMARK INTER:                  -7.798
REMARK INTRA:                  -0.956
REMARK UNBOUND:                -1.250
REMARK  5 active torsions:
REMARK  status: ('A' for Active; 'I' for Inactive)
REMARK    1  A    between atoms: N8_1  and  C24_2 
REMARK    2  A    between atoms: N8_1  and  C7_8 
REMARK    3  A    between atoms: C2_13  and  N1_14 
REMARK    4  A    between atoms: N1_14  and  C17_15 
REMARK    5  A    between atoms: C14_16  and  C13_19 
ROOT
ATOM      1  C17 FTA A   1       5.174  16.457  17.060  1.00  0.00     0.142 C 
ATOM      2  C14 FTA A   1       5.977  16.814  18.082  1.00  0.00     0.158 C 
ATOM      3  C18 FTA A   1       7.412  16.844  17.903  1.00  0.00     0.069 C 
ATOM      4  N21 FTA A   1       8.550  16.769  17.631  1.00  0.00    -0.197 NA
ENDROOT
BRANCH   2   5
ATOM      5  C13 FTA A   1       5.376  17.188  19.383  1.00  0.00     0.197 A 
ATOM      6  N15 FTA A   1       4.474  16.426  20.121  1.00  0.00    -0.093 NA
ATOM      7  N19 FTA A   1       4.129  17.161  21.248  1.00  0.00    -0.231 N 
ATOM      8  N20 FTA A   1       4.802  18.374  21.223  1.00  0.00    -0.017 NA
ATOM      9  H15 FTA A   1       3.478  16.856  21.985  1.00  0.00     0.200 HD
ATOM     10  N16 FTA A   1       5.585  18.388  20.072  1.00  0.00    -0.090 NA
ENDBRANCH   2   5
BRANCH   1  11
ATOM     11  N1  FTA A   1       4.269  15.479  17.253  1.00  0.00    -0.389 N 
ATOM     12  H11 FTA A   1       4.612  14.579  17.619  1.00  0.00     0.159 HD
BRANCH  11  13
ATOM     13  C2  FTA A   1       2.876  15.592  16.990  1.00  0.00     0.028 A 
ATOM     14  C4  FTA A   1       1.992  14.539  17.210  1.00  0.00     0.031 A 
ATOM     15  C6  FTA A   1       0.683  14.636  16.717  1.00  0.00     0.031 A 
ATOM     16  C7  FTA A   1       0.239  15.752  16.013  1.00  0.00     0.032 A 
ATOM     17  C5  FTA A   1       1.122  16.800  15.825  1.00  0.00     0.031 A 
ATOM     18  C3  FTA A   1       2.427  16.718  16.293  1.00  0.00     0.031 A 
BRANCH  16  19
ATOM     19  N8  FTA A   1      -1.004  15.785  15.329  1.00  0.00    -0.356 N 
ATOM     20  H1  FTA A   1      -1.820  16.137  15.850  1.00  0.00     0.166 HD
BRANCH  19  21
ATOM     21  C24 FTA A   1      -1.216  15.372  13.979  1.00  0.00     0.032 A 
ATOM     22  C26 FTA A   1      -2.459  15.432  13.394  1.00  0.00     0.029 A 
ATOM     23  C28 FTA A   1      -2.633  14.858  12.149  1.00  0.00     0.002 A 
ATOM     24  C30 FTA A   1      -1.596  14.255  11.457  1.00  0.00     0.000 A 
ATOM     25  C29 FTA A   1      -0.344  14.223  12.013  1.00  0.00     0.002 A 
ATOM     26  C27 FTA A   1      -0.166  14.799  13.275  1.00  0.00     0.029 A 
ENDBRANCH  19  21
ENDBRANCH  16  19
ENDBRANCH  11  13
ENDBRANCH   1  11
TORSDOF 5
ENDMDL
MODEL 3
REMARK VINA RESULT:    -5.775      1.886      3.216
REMARK INTER + INTRA:          -8.713
REMARK INTER:                  -7.711
REMARK INTRA:                  -1.002
REMARK UNBOUND:                -1.250
REMARK  5 active torsions:
REMARK  status: ('A' for Active; 'I' for Inactive)
REMARK    1  A    between atoms: N8_1  and  C24_2 
REMARK    2  A    between atoms: N8_1  and  C7_8 
REMARK    3  A    between atoms: C2_13  and  N1_14 
REMARK    4  A    between atoms: N1_14  and  C17_15 
REMARK    5  A    between atoms: C14_16  and  C13_19 
ROOT
ATOM      1  C17 FTA A   1       4.659  16.716  16.823  1.00  0.00     0.142 C 
ATOM      2  C14 FTA A   1       5.506  16.815  17.866  1.00  0.00     0.158 C 
ATOM      3  C18 FTA A   1       6.937  16.779  17.648  1.00  0.00     0.069 C 
ATOM      4  N21 FTA A   1       8.060  16.678  17.329  1.00  0.00    -0.197 NA
ENDROOT
BRANCH   2   5
ATOM      5  C13 FTA A   1       4.961  16.975  19.234  1.00  0.00     0.197 A 
ATOM      6  N15 FTA A   1       4.307  15.996  19.978  1.00  0.00    -0.093 NA
ATOM      7  N19 FTA A   1       3.920  16.574  21.180  1.00  0.00    -0.231 N 
ATOM      8  N20 FTA A   1       4.322  17.902  21.197  1.00  0.00    -0.017 NA
ATOM      9  H15 FTA A   1       3.415  16.094  21.939  1.00  0.00     0.200 HD
ATOM     10  N16 FTA A   1       4.978  18.149  19.995  1.00  0.00    -0.090 NA
ENDBRANCH   2   5
BRANCH   1  11
ATOM     11  N1  FTA A   1       3.688  15.784  16.858  1.00  0.00    -0.389 N 
ATOM     12  H11 FTA A   1       3.923  14.867  17.266  1.00  0.00     0.159 HD
BRANCH  11  13
ATOM     13  C2  FTA A   1       2.363  15.968  16.376  1.00  0.00     0.028 A 
ATOM     14  C4  FTA A   1       1.907  17.201  15.916  1.00  0.00     0.031 A 
ATOM     15  C6  FTA A   1       0.537  17.371  15.674  1.00  0.00     0.031 A 
ATOM     16  C7  FTA A   1      -0.384  16.348  15.881  1.00  0.00     0.032 A 
ATOM     17  C5  FTA A   1       0.088  15.122  16.314  1.00  0.00     0.031 A 
ATOM     18  C3  FTA A   1       1.441  14.936  16.573  1.00  0.00     0.031 A 
BRANCH  16  19
ATOM     19  N8  FTA A   1      -1.787  16.556  15.846  1.00  0.00    -0.356 N 
ATOM     20  H1  FTA A   1      -2.184  17.214  16.531  1.00  0.00     0.166 HD
BRANCH  19  21
ATOM     21  C24 FTA A   1      -2.693  15.928  14.938  1.00  0.00     0.032 A 
ATOM     22  C26 FTA A   1      -3.921  15.467  15.349  1.00  0.00     0.029 A 
ATOM     23  C28 FTA A   1      -4.677  14.718  14.468  1.00  0.00     0.002 A 
ATOM     24  C30 FTA A   1      -4.256  14.442  13.177  1.00  0.00     0.000 A 
ATOM     25  C29 FTA A   1      -3.052  14.928  12.743  1.00  0.00     0.002 A 
ATOM     26  C27 FTA A   1      -2.283  15.684  13.635  1.00  0.00     0.029 A 
ENDBRANCH  19  21
ENDBRANCH  16  19
ENDBRANCH  11  13
ENDBRANCH   1  11
TORSDOF 5
ENDMDL
MODEL 4
REMARK VINA RESULT:    -5.665      1.136      2.856
REMARK INTER + INTRA:          -8.571
REMARK INTER:                  -7.577
REMARK INTRA:                  -0.994
REMARK UNBOUND:                -1.250
REMARK  5 active torsions:
REMARK  status: ('A' for Active; 'I' for Inactive)
REMARK    1  A    between atoms: N8_1  and  C24_2 
REMARK    2  A    between atoms: N8_1  and  C7_8 
REMARK    3  A    between atoms: C2_13  and  N1_14 
REMARK    4  A    between atoms: N1_14  and  C17_15 
REMARK    5  A    between atoms: C14_16  and  C13_19 
ROOT
ATOM      1  C17 FTA A   1       5.443  16.607  17.372  1.00  0.00     0.142 C 
ATOM      2  C14 FTA A   1       6.222  17.165  18.320  1.00  0.00     0.158 C 
ATOM      3  C18 FTA A   1       7.662  17.160  18.173  1.00  0.00     0.069 C 
ATOM      4  N21 FTA A   1       8.806  17.032  17.951  1.00  0.00    -0.197 NA
ENDROOT
BRANCH   2   5
ATOM      5  C13 FTA A   1       5.592  17.795  19.503  1.00  0.00     0.197 A 
ATOM      6  N15 FTA A   1       6.208  18.047  20.726  1.00  0.00    -0.093 NA
ATOM      7  N19 FTA A   1       5.254  18.603  21.568  1.00  0.00    -0.231 N 
ATOM      8  N20 FTA A   1       4.049  18.701  20.888  1.00  0.00    -0.017 NA
ATOM      9  H15 FTA A   1       5.415  18.897  22.543  1.00  0.00     0.200 HD
ATOM     10  N16 FTA A   1       4.259  18.210  19.604  1.00  0.00    -0.090 NA
ENDBRANCH   2   5
BRANCH   1  11
ATOM     11  N1  FTA A   1       4.530  15.687  17.739  1.00  0.00    -0.389 N 
ATOM     12  H11 FTA A   1       4.826  14.963  18.410  1.00  0.00     0.159 HD
BRANCH  11  13
ATOM     13  C2  FTA A   1       3.188  15.639  17.270  1.00  0.00     0.028 A 
ATOM     14  C4  FTA A   1       2.372  14.528  17.473  1.00  0.00     0.031 A 
ATOM     15  C6  FTA A   1       1.150  14.450  16.792  1.00  0.00     0.031 A 
ATOM     16  C7  FTA A   1       0.724  15.446  15.917  1.00  0.00     0.032 A 
ATOM     17  C5  FTA A   1       1.535  16.555  15.746  1.00  0.00     0.031 A 
ATOM     18  C3  FTA A   1       2.757  16.645  16.401  1.00  0.00     0.031 A 
BRANCH  16  19
ATOM     19  N8  FTA A   1      -0.399  15.294  15.064  1.00  0.00    -0.356 N 
ATOM     20  H1  FTA A   1      -1.330  15.450  15.477  1.00  0.00     0.166 HD
BRANCH  19  21
ATOM     21  C24 FTA A   1      -0.345  14.943  13.682  1.00  0.00     0.032 A 
ATOM     22  C26 FTA A   1       0.831  14.561  13.080  1.00  0.00     0.029 A 
ATOM     23  C28 FTA A   1       0.851  14.402  11.708  1.00  0.00     0.002 A 
ATOM     24  C30 FTA A   1      -0.274  14.582  10.922  1.00  0.00     0.000 A 
ATOM     25  C29 FTA A   1      -1.461  14.925  11.513  1.00  0.00     0.002 A 
ATOM     26  C27 FTA A   1      -1.484  15.090  12.903  1.00  0.00     0.029 A 
ENDBRANCH  19  21
ENDBRANCH  16  19
ENDBRANCH  11  13
ENDBRANCH   1  11
TORSDOF 5
ENDMDL
MODEL 5
REMARK VINA RESULT:    -5.567      4.743      6.041
REMARK INTER + INTRA:          -8.444
REMARK INTER:                  -7.425
REMARK INTRA:                  -1.019
REMARK UNBOUND:                -1.250
REMARK  5 active torsions:
REMARK  status: ('A' for Active; 'I' for Inactive)
REMARK    1  A    between atoms: N8_1  and  C24_2 
REMARK    2  A    between atoms: N8_1  and  C7_8 
REMARK    3  A    between atoms: C2_13  and  N1_14 
REMARK    4  A    between atoms: N1_14  and  C17_15 
REMARK    5  A    between atoms: C14_16  and  C13_19 
ROOT
ATOM      1  C17 FTA A   1       4.969  17.912  17.621  1.00  0.00     0.142 C 
ATOM      2  C14 FTA A   1       4.398  17.407  18.733  1.00  0.00     0.158 C 
ATOM      3  C18 FTA A   1       4.232  18.236  19.907  1.00  0.00     0.069 C 
ATOM      4  N21 FTA A   1       4.216  19.002  20.795  1.00  0.00    -0.197 NA
ENDROOT
BRANCH   2   5
ATOM      5  C13 FTA A   1       3.928  16.002  18.736  1.00  0.00     0.197 A 
ATOM      6  N15 FTA A   1       3.948  15.131  19.823  1.00  0.00    -0.093 NA
ATOM      7  N19 FTA A   1       3.463  13.906  19.385  1.00  0.00    -0.231 N 
ATOM      8  N20 FTA A   1       3.143  13.997  18.039  1.00  0.00    -0.017 NA
ATOM      9  H15 FTA A   1       3.358  13.062  19.968  1.00  0.00     0.200 HD
ATOM     10  N16 FTA A   1       3.420  15.300  17.637  1.00  0.00    -0.090 NA
ENDBRANCH   2   5
BRANCH   1  11
ATOM     11  N1  FTA A   1       6.009  17.258  17.068  1.00  0.00    -0.389 N 
ATOM     12  H11 FTA A   1       6.744  16.911  17.701  1.00  0.00     0.159 HD
BRANCH  11  13
ATOM     13  C2  FTA A   1       6.169  17.009  15.678  1.00  0.00     0.028 A 
ATOM     14  C4  FTA A   1       5.179  17.323  14.750  1.00  0.00     0.031 A 
ATOM     15  C6  FTA A   1       5.300  16.846  13.438  1.00  0.00     0.031 A 
ATOM     16  C7  FTA A   1       6.379  16.065  13.031  1.00  0.00     0.032 A 
ATOM     17  C5  FTA A   1       7.367  15.783  13.958  1.00  0.00     0.031 A 
ATOM     18  C3  FTA A   1       7.258  16.235  15.268  1.00  0.00     0.031 A 
BRANCH  16  19
ATOM     19  N8  FTA A   1       6.420  15.400  11.779  1.00  0.00    -0.356 N 
ATOM     20  H1  FTA A   1       5.941  15.855  10.988  1.00  0.00     0.166 HD
BRANCH  19  21
ATOM     21  C24 FTA A   1       7.069  14.155  11.524  1.00  0.00     0.032 A 
ATOM     22  C26 FTA A   1       6.450  12.954  11.778  1.00  0.00     0.029 A 
ATOM     23  C28 FTA A   1       7.190  11.792  11.674  1.00  0.00     0.002 A 
ATOM     24  C30 FTA A   1       8.522  11.791  11.296  1.00  0.00     0.000 A 
ATOM     25  C29 FTA A   1       9.140  12.977  11.004  1.00  0.00     0.002 A 
ATOM     26  C27 FTA A   1       8.394  14.156  11.111  1.00  0.00     0.029 A 
ENDBRANCH  19  21
ENDBRANCH  16  19
ENDBRANCH  11  13
ENDBRANCH   1  11
TORSDOF 5
ENDMDL
MODEL 6
REMARK VINA RESULT:    -5.561      4.923      7.386
REMARK INTER + INTRA:          -8.436
REMARK INTER:                  -7.209
REMARK INTRA:                  -1.227
REMARK UNBOUND:                -1.250
REMARK  5 active torsions:
REMARK  status: ('A' for Active; 'I' for Inactive)
REMARK    1  A    between atoms: N8_1  and  C24_2 
REMARK    2  A    between atoms: N8_1  and  C7_8 
REMARK    3  A    between atoms: C2_13  and  N1_14 
REMARK    4  A    between atoms: N1_14  and  C17_15 
REMARK    5  A    between atoms: C14_16  and  C13_19 
ROOT
ATOM      1  C17 FTA A   1       6.193  15.590  10.912  1.00  0.00     0.142 C 
ATOM      2  C14 FTA A   1       5.701  14.343  11.045  1.00  0.00     0.158 C 
ATOM      3  C18 FTA A   1       4.289  14.093  10.849  1.00  0.00     0.069 C 
ATOM      4  N21 FTA A   1       3.124  14.050  10.720  1.00  0.00    -0.197 NA
ENDROOT
BRANCH   2   5
ATOM      5  C13 FTA A   1       6.619  13.229  11.376  1.00  0.00     0.197 A 
ATOM      6  N15 FTA A   1       6.248  11.962  11.822  1.00  0.00    -0.093 NA
ATOM      7  N19 FTA A   1       7.414  11.245  12.057  1.00  0.00    -0.231 N 
ATOM      8  N20 FTA A   1       8.508  12.046  11.767  1.00  0.00    -0.017 NA
ATOM      9  H15 FTA A   1       7.458  10.272  12.394  1.00  0.00     0.200 HD
ATOM     10  N16 FTA A   1       8.018  13.273  11.334  1.00  0.00    -0.090 NA
ENDBRANCH   2   5
BRANCH   1  11
ATOM     11  N1  FTA A   1       6.928  16.110  11.914  1.00  0.00    -0.389 N 
ATOM     12  H11 FTA A   1       7.931  16.269  11.735  1.00  0.00     0.159 HD
BRANCH  11  13
ATOM     13  C2  FTA A   1       6.427  16.457  13.198  1.00  0.00     0.028 A 
ATOM     14  C4  FTA A   1       7.003  15.977  14.372  1.00  0.00     0.031 A 
ATOM     15  C6  FTA A   1       6.328  16.166  15.586  1.00  0.00     0.031 A 
ATOM     16  C7  FTA A   1       5.099  16.817  15.657  1.00  0.00     0.032 A 
ATOM     17  C5  FTA A   1       4.553  17.309  14.485  1.00  0.00     0.031 A 
ATOM     18  C3  FTA A   1       5.199  17.121  13.269  1.00  0.00     0.031 A 
BRANCH  16  19
ATOM     19  N8  FTA A   1       4.304  16.835  16.831  1.00  0.00    -0.356 N 
ATOM     20  H1  FTA A   1       4.454  17.612  17.491  1.00  0.00     0.166 HD
BRANCH  19  21
ATOM     21  C24 FTA A   1       3.314  15.866  17.175  1.00  0.00     0.032 A 
ATOM     22  C26 FTA A   1       3.531  14.932  18.160  1.00  0.00     0.029 A 
ATOM     23  C28 FTA A   1       2.607  13.917  18.326  1.00  0.00     0.002 A 
ATOM     24  C30 FTA A   1       1.459  13.825  17.558  1.00  0.00     0.000 A 
ATOM     25  C29 FTA A   1       1.212  14.771  16.599  1.00  0.00     0.002 A 
ATOM     26  C27 FTA A   1       2.147  15.798  16.426  1.00  0.00     0.029 A 
ENDBRANCH  19  21
ENDBRANCH  16  19
ENDBRANCH  11  13
ENDBRANCH   1  11
TORSDOF 5
ENDMDL
MODEL 7
REMARK VINA RESULT:    -5.524      2.190      3.805
REMARK INTER + INTRA:          -8.388
REMARK INTER:                  -7.420
REMARK INTRA:                  -0.968
REMARK UNBOUND:                -1.250
REMARK  5 active torsions:
REMARK  status: ('A' for Active; 'I' for Inactive)
REMARK    1  A    between atoms: N8_1  and  C24_2 
REMARK    2  A    between atoms: N8_1  and  C7_8 
REMARK    3  A    between atoms: C2_13  and  N1_14 
REMARK    4  A    between atoms: N1_14  and  C17_15 
REMARK    5  A    between atoms: C14_16  and  C13_19 
ROOT
ATOM      1  C17 FTA A   1       5.027  16.517  17.045  1.00  0.00     0.142 C 
ATOM      2  C14 FTA A   1       5.795  16.793  18.118  1.00  0.00     0.158 C 
ATOM      3  C18 FTA A   1       7.236  16.835  17.990  1.00  0.00     0.069 C 
ATOM      4  N21 FTA A   1       8.382  16.779  17.751  1.00  0.00    -0.197 NA
ENDROOT
BRANCH   2   5
ATOM      5  C13 FTA A   1       5.151  17.067  19.423  1.00  0.00     0.197 A 
ATOM      6  N15 FTA A   1       5.444  18.128  20.277  1.00  0.00    -0.093 NA
ATOM      7  N19 FTA A   1       4.648  17.986  21.407  1.00  0.00    -0.231 N 
ATOM      8  N20 FTA A   1       3.865  16.850  21.272  1.00  0.00    -0.017 NA
ATOM      9  H15 FTA A   1       4.641  18.624  22.217  1.00  0.00     0.200 HD
ATOM     10  N16 FTA A   1       4.167  16.284  20.038  1.00  0.00    -0.090 NA
ENDBRANCH   2   5
BRANCH   1  11
ATOM     11  N1  FTA A   1       4.117  15.527  17.133  1.00  0.00    -0.389 N 
ATOM     12  H11 FTA A   1       4.436  14.618  17.498  1.00  0.00     0.159 HD
BRANCH  11  13
ATOM     13  C2  FTA A   1       2.750  15.642  16.761  1.00  0.00     0.028 A 
ATOM     14  C4  FTA A   1       1.805  14.679  17.105  1.00  0.00     0.031 A 
ATOM     15  C6  FTA A   1       0.534  14.733  16.516  1.00  0.00     0.031 A 
ATOM     16  C7  FTA A   1       0.186  15.717  15.596  1.00  0.00     0.032 A 
ATOM     17  C5  FTA A   1       1.127  16.682  15.284  1.00  0.00     0.031 A 
ATOM     18  C3  FTA A   1       2.397  16.638  15.846  1.00  0.00     0.031 A 
BRANCH  16  19
ATOM     19  N8  FTA A   1      -1.011  15.671  14.835  1.00  0.00    -0.356 N 
ATOM     20  H1  FTA A   1      -0.990  15.137  13.955  1.00  0.00     0.166 HD
BRANCH  19  21
ATOM     21  C24 FTA A   1      -2.240  16.305  15.189  1.00  0.00     0.032 A 
ATOM     22  C26 FTA A   1      -2.270  17.564  15.740  1.00  0.00     0.029 A 
ATOM     23  C28 FTA A   1      -3.472  18.050  16.219  1.00  0.00     0.002 A 
ATOM     24  C30 FTA A   1      -4.650  17.328  16.136  1.00  0.00     0.000 A 
ATOM     25  C29 FTA A   1      -4.641  16.088  15.555  1.00  0.00     0.002 A 
ATOM     26  C27 FTA A   1      -3.425  15.592  15.072  1.00  0.00     0.029 A 
ENDBRANCH  19  21
ENDBRANCH  16  19
ENDBRANCH  11  13
ENDBRANCH   1  11
TORSDOF 5
ENDMDL
MODEL 8
REMARK VINA RESULT:    -5.473      3.161      5.416
REMARK INTER + INTRA:          -8.322
REMARK INTER:                  -7.073
REMARK INTRA:                  -1.250
REMARK UNBOUND:                -1.250
REMARK  5 active torsions:
REMARK  status: ('A' for Active; 'I' for Inactive)
REMARK    1  A    between atoms: N8_1  and  C24_2 
REMARK    2  A    between atoms: N8_1  and  C7_8 
REMARK    3  A    between atoms: C2_13  and  N1_14 
REMARK    4  A    between atoms: N1_14  and  C17_15 
REMARK    5  A    between atoms: C14_16  and  C13_19 
ROOT
ATOM      1  C17 FTA A   1       2.356  16.769  16.565  1.00  0.00     0.142 C 
ATOM      2  C14 FTA A   1       3.356  16.009  17.052  1.00  0.00     0.158 C 
ATOM      3  C18 FTA A   1       4.730  16.304  16.704  1.00  0.00     0.069 C 
ATOM      4  N21 FTA A   1       5.781  16.622  16.293  1.00  0.00    -0.197 NA
ENDROOT
BRANCH   2   5
ATOM      5  C13 FTA A   1       3.039  14.882  17.959  1.00  0.00     0.197 A 
ATOM      6  N15 FTA A   1       3.562  14.680  19.234  1.00  0.00    -0.093 NA
ATOM      7  N19 FTA A   1       3.040  13.487  19.716  1.00  0.00    -0.231 N 
ATOM      8  N20 FTA A   1       2.200  12.938  18.758  1.00  0.00    -0.017 NA
ATOM      9  H15 FTA A   1       3.244  13.074  20.637  1.00  0.00     0.200 HD
ATOM     10  N16 FTA A   1       2.189  13.808  17.672  1.00  0.00    -0.090 NA
ENDBRANCH   2   5
BRANCH   1  11
ATOM     11  N1  FTA A   1       1.330  16.168  15.931  1.00  0.00    -0.389 N 
ATOM     12  H11 FTA A   1       0.494  15.940  16.488  1.00  0.00     0.159 HD
BRANCH  11  13
ATOM     13  C2  FTA A   1       1.313  15.825  14.551  1.00  0.00     0.028 A 
ATOM     14  C4  FTA A   1       0.647  14.699  14.076  1.00  0.00     0.031 A 
ATOM     15  C6  FTA A   1       0.860  14.291  12.752  1.00  0.00     0.031 A 
ATOM     16  C7  FTA A   1       1.718  14.975  11.896  1.00  0.00     0.032 A 
ATOM     17  C5  FTA A   1       2.353  16.107  12.376  1.00  0.00     0.031 A 
ATOM     18  C3  FTA A   1       2.166  16.520  13.689  1.00  0.00     0.031 A 
BRANCH  16  19
ATOM     19  N8  FTA A   1       2.109  14.468  10.630  1.00  0.00    -0.356 N 
ATOM     20  H1  FTA A   1       1.381  14.398   9.905  1.00  0.00     0.166 HD
BRANCH  19  21
ATOM     21  C24 FTA A   1       3.427  14.047  10.279  1.00  0.00     0.032 A 
ATOM     22  C26 FTA A   1       4.157  14.696   9.311  1.00  0.00     0.029 A 
ATOM     23  C28 FTA A   1       5.351  14.138   8.897  1.00  0.00     0.002 A 
ATOM     24  C30 FTA A   1       5.854  12.968   9.443  1.00  0.00     0.000 A 
ATOM     25  C29 FTA A   1       5.155  12.333  10.435  1.00  0.00     0.002 A 
ATOM     26  C27 FTA A   1       3.943  12.894  10.854  1.00  0.00     0.029 A 
ENDBRANCH  19  21
ENDBRANCH  16  19
ENDBRANCH  11  13
ENDBRANCH   1  11
TORSDOF 5
ENDMDL
MODEL 9
REMARK VINA RESULT:    -5.391      7.655     10.646
REMARK INTER + INTRA:          -8.216
REMARK INTER:                  -7.173
REMARK INTRA:                  -1.043
REMARK UNBOUND:                -1.250
REMARK  5 active torsions:
REMARK  status: ('A' for Active; 'I' for Inactive)
REMARK    1  A    between atoms: N8_1  and  C24_2 
REMARK    2  A    between atoms: N8_1  and  C7_8 
REMARK    3  A    between atoms: C2_13  and  N1_14 
REMARK    4  A    between atoms: N1_14  and  C17_15 
REMARK    5  A    between atoms: C14_16  and  C13_19 
ROOT
ATOM      1  C17 FTA A   1       9.405  12.445  10.683  1.00  0.00     0.142 C 
ATOM      2  C14 FTA A   1       8.995  11.409   9.925  1.00  0.00     0.158 C 
ATOM      3  C18 FTA A   1       9.944  10.406   9.490  1.00  0.00     0.069 C 
ATOM      4  N21 FTA A   1      10.827   9.706   9.165  1.00  0.00    -0.197 NA
ENDROOT
BRANCH   2   5
ATOM      5  C13 FTA A   1       7.566  11.297   9.556  1.00  0.00     0.197 A 
ATOM      6  N15 FTA A   1       6.774  10.156   9.666  1.00  0.00    -0.093 NA
ATOM      7  N19 FTA A   1       5.516  10.471   9.169  1.00  0.00    -0.231 N 
ATOM      8  N20 FTA A   1       5.510  11.792   8.747  1.00  0.00    -0.017 NA
ATOM      9  H15 FTA A   1       4.714   9.825   9.121  1.00  0.00     0.200 HD
ATOM     10  N16 FTA A   1       6.777  12.310   8.996  1.00  0.00    -0.090 NA
ENDBRANCH   2   5
BRANCH   1  11
ATOM     11  N1  FTA A   1       9.110  13.698  10.288  1.00  0.00    -0.389 N 
ATOM     12  H11 FTA A   1       9.321  13.951   9.311  1.00  0.00     0.159 HD
BRANCH  11  13
ATOM     13  C2  FTA A   1       8.530  14.699  11.114  1.00  0.00     0.028 A 
ATOM     14  C4  FTA A   1       9.119  15.948  11.290  1.00  0.00     0.031 A 
ATOM     15  C6  FTA A   1       8.625  16.798  12.289  1.00  0.00     0.031 A 
ATOM     16  C7  FTA A   1       7.564  16.432  13.114  1.00  0.00     0.032 A 
ATOM     17  C5  FTA A   1       6.974  15.198  12.910  1.00  0.00     0.031 A 
ATOM     18  C3  FTA A   1       7.457  14.336  11.934  1.00  0.00     0.031 A 
BRANCH  16  19
ATOM     19  N8  FTA A   1       7.186  17.180  14.259  1.00  0.00    -0.356 N 
ATOM     20  H1  FTA A   1       6.465  17.905  14.133  1.00  0.00     0.166 HD
BRANCH  19  21
ATOM     21  C24 FTA A   1       7.723  17.011  15.571  1.00  0.00     0.032 A 
ATOM     22  C26 FTA A   1       6.913  16.766  16.655  1.00  0.00     0.029 A 
ATOM     23  C28 FTA A   1       7.474  16.784  17.918  1.00  0.00     0.002 A 
ATOM     24  C30 FTA A   1       8.824  17.009  18.128  1.00  0.00     0.000 A 
ATOM     25  C29 FTA A   1       9.648  17.217  17.054  1.00  0.00     0.002 A 
ATOM     26  C27 FTA A   1       9.082  17.202  15.774  1.00  0.00     0.029 A 
ENDBRANCH  19  21
ENDBRANCH  16  19
ENDBRANCH  11  13
ENDBRANCH   1  11
TORSDOF 5
ENDMDL
