MODEL 1
REMARK VINA RESULT:    -7.933      0.000      0.000
REMARK INTER + INTRA:         -11.866
REMARK INTER:                 -10.812
REMARK INTRA:                  -1.054
REMARK UNBOUND:                -1.382
REMARK  6 active torsions:
REMARK  status: ('A' for Active; 'I' for Inactive)
REMARK    1  A    between atoms: N_6  and  C_7 
REMARK    2  A    between atoms: C_12  and  N_13 
REMARK       I    between atoms: N_13  and  C_15 
REMARK    3  A    between atoms: C_15  and  C_17 
REMARK    4  A    between atoms: C_18  and  O_20 
REMARK    5  A    between atoms: C_24  and  C_28 
REMARK       I    between atoms: C_28  and  N_30 
REMARK    6  A    between atoms: C_32  and  O_33 
ROOT
HETATM    1  C   UNL     1       4.493   6.856  22.836  0.00  0.00     0.066 C 
HETATM    2  C   UNL     1       5.826   6.410  22.715  0.00  0.00     0.083 C 
HETATM    3  C   UNL     1       6.544   6.504  21.513  0.00  0.00     0.069 C 
HETATM    4  C   UNL     1       3.902   7.473  21.715  0.00  0.00     0.036 C 
HETATM    5  C   UNL     1       4.548   7.437  20.454  0.00  0.00     0.029 C 
HETATM    6  C   UNL     1       5.863   6.995  20.404  0.00  0.00     0.065 C 
HETATM    7  C   UNL     1       4.181   7.666  19.085  0.00  0.00     0.157 C 
HETATM    8  N   UNL     1       5.264   7.554  18.282  0.00  0.00    -0.168 NA
HETATM    9  N   UNL     1       6.249   7.169  19.103  0.00  0.00    -0.277 N 
HETATM   10  H   UNL     1       7.166   7.001  18.706  0.00  0.00     0.189 HD
ENDROOT
BRANCH   1  11
HETATM   11  C   UNL     1       3.769   6.637  24.155  0.00  0.00     0.260 C 
HETATM   12  N   UNL     1       3.389   7.725  24.988  0.00  0.00    -0.318 N 
HETATM   13  C   UNL     1       3.639   9.107  24.568  0.00  0.00     0.159 C 
HETATM   14  O   UNL     1       3.495   5.452  24.375  0.00  0.00    -0.267 OA
BRANCH  12  15
HETATM   15  C   UNL     1       2.620   7.567  26.224  0.00  0.00     0.037 A 
HETATM   16  C   UNL     1       3.230   7.070  27.387  0.00  0.00     0.032 A 
HETATM   17  C   UNL     1       2.593   7.070  28.641  0.00  0.00     0.031 A 
HETATM   18  C   UNL     1       1.283   7.520  28.817  0.00  0.00     0.030 A 
HETATM   19  C   UNL     1       0.631   7.905  27.641  0.00  0.00     0.031 A 
HETATM   20  C   UNL     1       1.279   7.932  26.376  0.00  0.00     0.032 A 
BRANCH  18  21
HETATM   21  N   UNL     1       0.701   7.552  30.067  0.00  0.00    -0.377 N 
HETATM   22  C   UNL     1       0.535   8.772  30.873  0.00  0.00     0.149 C 
HETATM   23  C   UNL     1       1.313   8.648  32.195  0.00  0.00     0.187 C 
HETATM   24  O   UNL     1       0.929   7.472  32.927  0.00  0.00    -0.388 OA
HETATM   25  C   UNL     1       1.175   6.294  32.141  0.00  0.00     0.187 C 
HETATM   26  C   UNL     1       0.388   6.318  30.817  0.00  0.00     0.149 C 
ENDBRANCH  18  21
ENDBRANCH  12  15
ENDBRANCH   1  11
BRANCH   2  27
HETATM   27  O   UNL     1       6.523   5.841  23.752  0.00  0.00    -0.360 OA
HETATM   28  H   UNL     1       5.924   5.807  24.530  0.00  0.00     0.217 HD
ENDBRANCH   2  27
BRANCH   7  29
HETATM   29  C   UNL     1       2.818   7.949  18.569  0.00  0.00     0.275 C 
HETATM   30  O   UNL     1       2.397   9.107  18.560  0.00  0.00    -0.266 OA
HETATM   31  N   UNL     1       1.992   6.872  18.149  0.00  0.00    -0.344 N 
HETATM   32  C   UNL     1       0.649   7.224  17.674  0.00  0.00     0.158 C 
HETATM   33  C   UNL     1       2.103   5.534  18.735  0.00  0.00     0.126 C 
HETATM   34  C   UNL     1      -0.039   6.140  16.811  0.00  0.00     0.139 C 
HETATM   35  C   UNL     1       0.093   4.753  17.447  0.00  0.00     0.035 C 
HETATM   36  C   UNL     1       1.540   4.451  17.822  0.00  0.00     0.022 C 
BRANCH  34  37
HETATM   37  O   UNL     1       0.504   6.052  15.486  0.00  0.00    -0.389 OA
HETATM   38  C   UNL     1      -0.104   5.046  14.686  0.00  0.00     0.202 C 
ENDBRANCH  34  37
ENDBRANCH   7  29
TORSDOF 6
ENDMDL
MODEL 2
REMARK VINA RESULT:    -7.462      2.942     10.348
REMARK INTER + INTRA:         -11.244
REMARK INTER:                 -10.288
REMARK INTRA:                  -0.956
REMARK UNBOUND:                -1.382
REMARK  6 active torsions:
REMARK  status: ('A' for Active; 'I' for Inactive)
REMARK    1  A    between atoms: N_6  and  C_7 
REMARK    2  A    between atoms: C_12  and  N_13 
REMARK       I    between atoms: N_13  and  C_15 
REMARK    3  A    between atoms: C_15  and  C_17 
REMARK    4  A    between atoms: C_18  and  O_20 
REMARK    5  A    between atoms: C_24  and  C_28 
REMARK       I    between atoms: C_28  and  N_30 
REMARK    6  A    between atoms: C_32  and  O_33 
ROOT
HETATM    1  C   UNL     1       3.687   6.451  22.837  0.00  0.00     0.066 C 
HETATM    2  C   UNL     1       5.021   6.463  23.300  0.00  0.00     0.083 C 
HETATM    3  C   UNL     1       5.346   6.665  24.650  0.00  0.00     0.069 C 
HETATM    4  C   UNL     1       2.659   6.584  23.792  0.00  0.00     0.036 C 
HETATM    5  C   UNL     1       2.964   6.944  25.128  0.00  0.00     0.029 C 
HETATM    6  C   UNL     1       4.295   6.928  25.523  0.00  0.00     0.065 C 
HETATM    7  C   UNL     1       2.245   7.442  26.267  0.00  0.00     0.157 C 
HETATM    8  N   UNL     1       3.066   7.535  27.338  0.00  0.00    -0.168 NA
HETATM    9  N   UNL     1       4.274   7.207  26.863  0.00  0.00    -0.277 N 
HETATM   10  H   UNL     1       5.063   7.229  27.499  0.00  0.00     0.189 HD
ENDROOT
BRANCH   1  11
HETATM   11  C   UNL     1       3.437   6.309  21.344  0.00  0.00     0.260 C 
HETATM   12  N   UNL     1       2.846   5.138  20.795  0.00  0.00    -0.318 N 
HETATM   13  C   UNL     1       2.406   4.046  21.668  0.00  0.00     0.159 C 
HETATM   14  O   UNL     1       3.729   7.321  20.698  0.00  0.00    -0.267 OA
BRANCH  12  15
HETATM   15  C   UNL     1       2.511   4.990  19.377  0.00  0.00     0.037 A 
HETATM   16  C   UNL     1       3.003   3.904  18.636  0.00  0.00     0.032 A 
HETATM   17  C   UNL     1       2.569   3.613  17.329  0.00  0.00     0.031 A 
HETATM   18  C   UNL     1       1.650   4.414  16.649  0.00  0.00     0.030 A 
HETATM   19  C   UNL     1       1.247   5.563  17.339  0.00  0.00     0.031 A 
HETATM   20  C   UNL     1       1.662   5.846  18.669  0.00  0.00     0.032 A 
BRANCH  18  21
HETATM   21  N   UNL     1       1.207   4.078  15.387  0.00  0.00    -0.377 N 
HETATM   22  C   UNL     1       0.359   4.942  14.550  0.00  0.00     0.149 C 
HETATM   23  C   UNL     1      -0.984   4.250  14.258  0.00  0.00     0.187 C 
HETATM   24  O   UNL     1      -0.793   2.955  13.663  0.00  0.00    -0.388 OA
HETATM   25  C   UNL     1      -0.027   2.112  14.540  0.00  0.00     0.187 C 
HETATM   26  C   UNL     1       1.359   2.714  14.840  0.00  0.00     0.149 C 
ENDBRANCH  18  21
ENDBRANCH  12  15
ENDBRANCH   1  11
BRANCH   2  27
HETATM   27  O   UNL     1       6.103   6.291  22.473  0.00  0.00    -0.360 OA
HETATM   28  H   UNL     1       5.783   6.361  21.546  0.00  0.00     0.217 HD
ENDBRANCH   2  27
BRANCH   7  29
HETATM   29  C   UNL     1       0.817   7.846  26.304  0.00  0.00     0.275 C 
HETATM   30  O   UNL     1      -0.034   7.045  26.693  0.00  0.00    -0.266 OA
HETATM   31  N   UNL     1       0.443   9.133  25.833  0.00  0.00    -0.344 N 
HETATM   32  C   UNL     1      -0.987   9.455  25.878  0.00  0.00     0.158 C 
HETATM   33  C   UNL     1       1.194   9.824  24.782  0.00  0.00     0.126 C 
HETATM   34  C   UNL     1      -1.315  10.966  25.811  0.00  0.00     0.139 C 
HETATM   35  C   UNL     1      -0.516  11.662  24.705  0.00  0.00     0.035 C 
HETATM   36  C   UNL     1       0.969  11.332  24.803  0.00  0.00     0.022 C 
BRANCH  34  37
HETATM   37  O   UNL     1      -1.030  11.656  27.037  0.00  0.00    -0.389 OA
HETATM   38  C   UNL     1      -1.384  10.921  28.201  0.00  0.00     0.202 C 
ENDBRANCH  34  37
ENDBRANCH   7  29
TORSDOF 6
ENDMDL
MODEL 3
REMARK VINA RESULT:    -7.453      4.071      9.155
REMARK INTER + INTRA:         -11.232
REMARK INTER:                 -10.387
REMARK INTRA:                  -0.846
REMARK UNBOUND:                -1.382
REMARK  6 active torsions:
REMARK  status: ('A' for Active; 'I' for Inactive)
REMARK    1  A    between atoms: N_6  and  C_7 
REMARK    2  A    between atoms: C_12  and  N_13 
REMARK       I    between atoms: N_13  and  C_15 
REMARK    3  A    between atoms: C_15  and  C_17 
REMARK    4  A    between atoms: C_18  and  O_20 
REMARK    5  A    between atoms: C_24  and  C_28 
REMARK       I    between atoms: C_28  and  N_30 
REMARK    6  A    between atoms: C_32  and  O_33 
ROOT
HETATM    1  C   UNL     1       2.295   5.566  18.928  0.00  0.00     0.066 C 
HETATM    2  C   UNL     1       3.032   5.667  17.729  0.00  0.00     0.083 C 
HETATM    3  C   UNL     1       4.248   6.365  17.651  0.00  0.00     0.069 C 
HETATM    4  C   UNL     1       2.848   6.139  20.090  0.00  0.00     0.036 C 
HETATM    5  C   UNL     1       3.987   6.977  20.004  0.00  0.00     0.029 C 
HETATM    6  C   UNL     1       4.674   7.026  18.799  0.00  0.00     0.065 C 
HETATM    7  C   UNL     1       4.647   7.935  20.846  0.00  0.00     0.157 C 
HETATM    8  N   UNL     1       5.774   8.387  20.251  0.00  0.00    -0.168 NA
HETATM    9  N   UNL     1       5.766   7.815  19.042  0.00  0.00    -0.277 N 
HETATM   10  H   UNL     1       6.522   8.032  18.402  0.00  0.00     0.189 HD
ENDROOT
BRANCH   1  11
HETATM   11  C   UNL     1       0.948   4.861  18.895  0.00  0.00     0.260 C 
HETATM   12  N   UNL     1       0.839   3.452  19.048  0.00  0.00    -0.318 N 
HETATM   13  C   UNL     1       2.031   2.636  19.298  0.00  0.00     0.159 C 
HETATM   14  O   UNL     1      -0.011   5.635  18.798  0.00  0.00    -0.267 OA
BRANCH  12  15
HETATM   15  C   UNL     1      -0.439   2.740  19.105  0.00  0.00     0.037 A 
HETATM   16  C   UNL     1      -0.508   1.432  19.609  0.00  0.00     0.032 A 
HETATM   17  C   UNL     1      -1.726   0.772  19.856  0.00  0.00     0.031 A 
HETATM   18  C   UNL     1      -2.963   1.352  19.573  0.00  0.00     0.030 A 
HETATM   19  C   UNL     1      -2.897   2.609  18.960  0.00  0.00     0.031 A 
HETATM   20  C   UNL     1      -1.670   3.290  18.733  0.00  0.00     0.032 A 
BRANCH  18  21
HETATM   21  N   UNL     1      -4.142   0.701  19.869  0.00  0.00    -0.377 N 
HETATM   22  C   UNL     1      -4.933  -0.066  18.893  0.00  0.00     0.149 C 
HETATM   23  C   UNL     1      -6.330   0.557  18.731  0.00  0.00     0.187 C 
HETATM   24  O   UNL     1      -7.009   0.668  19.994  0.00  0.00    -0.388 OA
HETATM   25  C   UNL     1      -6.247   1.486  20.897  0.00  0.00     0.187 C 
HETATM   26  C   UNL     1      -4.846   0.900  21.153  0.00  0.00     0.149 C 
ENDBRANCH  18  21
ENDBRANCH  12  15
ENDBRANCH   1  11
BRANCH   2  27
HETATM   27  O   UNL     1       2.621   5.106  16.546  0.00  0.00    -0.360 OA
HETATM   28  H   UNL     1       1.758   4.666  16.709  0.00  0.00     0.217 HD
ENDBRANCH   2  27
BRANCH   7  29
HETATM   29  C   UNL     1       4.180   8.420  22.169  0.00  0.00     0.275 C 
HETATM   30  O   UNL     1       3.780   9.579  22.288  0.00  0.00    -0.266 OA
HETATM   31  N   UNL     1       4.257   7.558  23.297  0.00  0.00    -0.344 N 
HETATM   32  C   UNL     1       3.800   8.113  24.575  0.00  0.00     0.158 C 
HETATM   33  C   UNL     1       5.283   6.520  23.411  0.00  0.00     0.126 C 
HETATM   34  C   UNL     1       3.458   7.058  25.655  0.00  0.00     0.139 C 
HETATM   35  C   UNL     1       4.547   5.986  25.753  0.00  0.00     0.035 C 
HETATM   36  C   UNL     1       4.884   5.413  24.380  0.00  0.00     0.022 C 
BRANCH  34  37
HETATM   37  O   UNL     1       2.218   6.381  25.403  0.00  0.00    -0.389 OA
HETATM   38  C   UNL     1       1.142   7.257  25.095  0.00  0.00     0.202 C 
ENDBRANCH  34  37
ENDBRANCH   7  29
TORSDOF 6
ENDMDL
MODEL 4
REMARK VINA RESULT:    -7.424      3.464     10.599
REMARK INTER + INTRA:         -11.194
REMARK INTER:                 -10.298
REMARK INTRA:                  -0.896
REMARK UNBOUND:                -1.382
REMARK  6 active torsions:
REMARK  status: ('A' for Active; 'I' for Inactive)
REMARK    1  A    between atoms: N_6  and  C_7 
REMARK    2  A    between atoms: C_12  and  N_13 
REMARK       I    between atoms: N_13  and  C_15 
REMARK    3  A    between atoms: C_15  and  C_17 
REMARK    4  A    between atoms: C_18  and  O_20 
REMARK    5  A    between atoms: C_24  and  C_28 
REMARK       I    between atoms: C_28  and  N_30 
REMARK    6  A    between atoms: C_32  and  O_33 
ROOT
HETATM    1  C   UNL     1       3.291   5.138  21.302  0.00  0.00     0.066 C 
HETATM    2  C   UNL     1       4.304   4.228  21.671  0.00  0.00     0.083 C 
HETATM    3  C   UNL     1       5.072   4.391  22.835  0.00  0.00     0.069 C 
HETATM    4  C   UNL     1       3.014   6.206  22.179  0.00  0.00     0.036 C 
HETATM    5  C   UNL     1       3.874   6.477  23.272  0.00  0.00     0.029 C 
HETATM    6  C   UNL     1       4.845   5.538  23.590  0.00  0.00     0.065 C 
HETATM    7  C   UNL     1       4.108   7.572  24.172  0.00  0.00     0.157 C 
HETATM    8  N   UNL     1       5.034   7.230  25.097  0.00  0.00    -0.168 NA
HETATM    9  N   UNL     1       5.440   6.010  24.728  0.00  0.00    -0.277 N 
HETATM   10  H   UNL     1       6.162   5.557  25.278  0.00  0.00     0.189 HD
ENDROOT
BRANCH   1  11
HETATM   11  C   UNL     1       2.569   4.925  19.980  0.00  0.00     0.260 C 
HETATM   12  N   UNL     1       3.083   5.438  18.759  0.00  0.00    -0.318 N 
HETATM   13  C   UNL     1       4.365   6.148  18.730  0.00  0.00     0.159 C 
HETATM   14  O   UNL     1       1.561   4.218  20.079  0.00  0.00    -0.267 OA
BRANCH  12  15
HETATM   15  C   UNL     1       2.467   5.188  17.454  0.00  0.00     0.037 A 
HETATM   16  C   UNL     1       2.175   3.879  17.039  0.00  0.00     0.032 A 
HETATM   17  C   UNL     1       1.423   3.594  15.885  0.00  0.00     0.031 A 
HETATM   18  C   UNL     1       0.949   4.594  15.033  0.00  0.00     0.030 A 
HETATM   19  C   UNL     1       1.339   5.893  15.378  0.00  0.00     0.031 A 
HETATM   20  C   UNL     1       2.076   6.187  16.557  0.00  0.00     0.032 A 
BRANCH  18  21
HETATM   21  N   UNL     1       0.175   4.288  13.934  0.00  0.00    -0.377 N 
HETATM   22  C   UNL     1      -1.296   4.222  13.949  0.00  0.00     0.149 C 
HETATM   23  C   UNL     1      -1.771   2.803  13.593  0.00  0.00     0.187 C 
HETATM   24  O   UNL     1      -1.233   2.366  12.333  0.00  0.00    -0.388 OA
HETATM   25  C   UNL     1       0.204   2.368  12.379  0.00  0.00     0.187 C 
HETATM   26  C   UNL     1       0.763   3.771  12.681  0.00  0.00     0.149 C 
ENDBRANCH  18  21
ENDBRANCH  12  15
ENDBRANCH   1  11
BRANCH   2  27
HETATM   27  O   UNL     1       4.629   3.123  20.925  0.00  0.00    -0.360 OA
HETATM   28  H   UNL     1       3.988   3.067  20.182  0.00  0.00     0.217 HD
ENDBRANCH   2  27
BRANCH   7  29
HETATM   29  C   UNL     1       3.478   8.915  24.114  0.00  0.00     0.275 C 
HETATM   30  O   UNL     1       4.026   9.819  23.480  0.00  0.00    -0.266 OA
HETATM   31  N   UNL     1       2.283   9.158  24.842  0.00  0.00    -0.344 N 
HETATM   32  C   UNL     1       1.731  10.514  24.757  0.00  0.00     0.158 C 
HETATM   33  C   UNL     1       1.971   8.446  26.083  0.00  0.00     0.126 C 
HETATM   34  C   UNL     1       0.238  10.633  25.150  0.00  0.00     0.139 C 
HETATM   35  C   UNL     1      -0.059   9.880  26.449  0.00  0.00     0.035 C 
HETATM   36  C   UNL     1       0.479   8.454  26.398  0.00  0.00     0.022 C 
BRANCH  34  37
HETATM   37  O   UNL     1      -0.647  10.114  24.147  0.00  0.00    -0.389 OA
HETATM   38  C   UNL     1      -1.805  10.912  23.940  0.00  0.00     0.202 C 
ENDBRANCH  34  37
ENDBRANCH   7  29
TORSDOF 6
ENDMDL
MODEL 5
REMARK VINA RESULT:    -7.351      2.760     11.207
REMARK INTER + INTRA:         -11.096
REMARK INTER:                  -9.985
REMARK INTRA:                  -1.112
REMARK UNBOUND:                -1.382
REMARK  6 active torsions:
REMARK  status: ('A' for Active; 'I' for Inactive)
REMARK    1  A    between atoms: N_6  and  C_7 
REMARK    2  A    between atoms: C_12  and  N_13 
REMARK       I    between atoms: N_13  and  C_15 
REMARK    3  A    between atoms: C_15  and  C_17 
REMARK    4  A    between atoms: C_18  and  O_20 
REMARK    5  A    between atoms: C_24  and  C_28 
REMARK       I    between atoms: C_28  and  N_30 
REMARK    6  A    between atoms: C_32  and  O_33 
ROOT
HETATM    1  C   UNL     1       3.483   5.666  19.353  0.00  0.00     0.066 C 
HETATM    2  C   UNL     1       4.738   6.137  18.911  0.00  0.00     0.083 C 
HETATM    3  C   UNL     1       5.794   6.405  19.796  0.00  0.00     0.069 C 
HETATM    4  C   UNL     1       3.327   5.402  20.728  0.00  0.00     0.036 C 
HETATM    5  C   UNL     1       4.320   5.810  21.654  0.00  0.00     0.029 C 
HETATM    6  C   UNL     1       5.536   6.256  21.155  0.00  0.00     0.065 C 
HETATM    7  C   UNL     1       4.413   5.990  23.075  0.00  0.00     0.157 C 
HETATM    8  N   UNL     1       5.673   6.339  23.424  0.00  0.00    -0.168 NA
HETATM    9  N   UNL     1       6.316   6.474  22.258  0.00  0.00    -0.277 N 
HETATM   10  H   UNL     1       7.290   6.757  22.277  0.00  0.00     0.189 HD
ENDROOT
BRANCH   1  11
HETATM   11  C   UNL     1       2.373   5.485  18.329  0.00  0.00     0.260 C 
HETATM   12  N   UNL     1       2.197   4.260  17.629  0.00  0.00    -0.318 N 
HETATM   13  C   UNL     1       3.057   3.108  17.917  0.00  0.00     0.159 C 
HETATM   14  O   UNL     1       1.626   6.464  18.235  0.00  0.00    -0.267 OA
BRANCH  12  15
HETATM   15  C   UNL     1       1.096   4.012  16.697  0.00  0.00     0.037 A 
HETATM   16  C   UNL     1       1.116   4.560  15.404  0.00  0.00     0.032 A 
HETATM   17  C   UNL     1       0.181   4.208  14.413  0.00  0.00     0.031 A 
HETATM   18  C   UNL     1      -0.870   3.322  14.654  0.00  0.00     0.030 A 
HETATM   19  C   UNL     1      -0.964   2.866  15.974  0.00  0.00     0.031 A 
HETATM   20  C   UNL     1      -0.007   3.197  16.971  0.00  0.00     0.032 A 
BRANCH  18  21
HETATM   21  N   UNL     1      -1.743   2.959  13.649  0.00  0.00    -0.377 N 
HETATM   22  C   UNL     1      -1.687   3.481  12.275  0.00  0.00     0.149 C 
HETATM   23  C   UNL     1      -2.982   4.239  11.938  0.00  0.00     0.187 C 
HETATM   24  O   UNL     1      -4.145   3.419  12.148  0.00  0.00    -0.388 OA
HETATM   25  C   UNL     1      -4.210   2.991  13.518  0.00  0.00     0.187 C 
HETATM   26  C   UNL     1      -2.966   2.176  13.920  0.00  0.00     0.149 C 
ENDBRANCH  18  21
ENDBRANCH  12  15
ENDBRANCH   1  11
BRANCH   2  27
HETATM   27  O   UNL     1       5.025   6.382  17.591  0.00  0.00    -0.360 OA
HETATM   28  H   UNL     1       4.188   6.292  17.083  0.00  0.00     0.217 HD
ENDBRANCH   2  27
BRANCH   7  29
HETATM   29  C   UNL     1       3.308   5.862  24.058  0.00  0.00     0.275 C 
HETATM   30  O   UNL     1       2.821   4.753  24.288  0.00  0.00    -0.266 OA
HETATM   31  N   UNL     1       2.783   7.028  24.676  0.00  0.00    -0.344 N 
HETATM   32  C   UNL     1       1.677   6.827  25.618  0.00  0.00     0.158 C 
HETATM   33  C   UNL     1       2.790   8.331  24.007  0.00  0.00     0.126 C 
HETATM   34  C   UNL     1       1.440   7.999  26.600  0.00  0.00     0.139 C 
HETATM   35  C   UNL     1       1.452   9.348  25.875  0.00  0.00     0.035 C 
HETATM   36  C   UNL     1       2.687   9.490  24.992  0.00  0.00     0.022 C 
BRANCH  34  37
HETATM   37  O   UNL     1       2.429   8.068  27.638  0.00  0.00    -0.389 OA
HETATM   38  C   UNL     1       1.966   8.695  28.827  0.00  0.00     0.202 C 
ENDBRANCH  34  37
ENDBRANCH   7  29
TORSDOF 6
ENDMDL
MODEL 6
REMARK VINA RESULT:    -7.273      2.078      2.669
REMARK INTER + INTRA:         -10.994
REMARK INTER:                  -9.697
REMARK INTRA:                  -1.297
REMARK UNBOUND:                -1.382
REMARK  6 active torsions:
REMARK  status: ('A' for Active; 'I' for Inactive)
REMARK    1  A    between atoms: N_6  and  C_7 
REMARK    2  A    between atoms: C_12  and  N_13 
REMARK       I    between atoms: N_13  and  C_15 
REMARK    3  A    between atoms: C_15  and  C_17 
REMARK    4  A    between atoms: C_18  and  O_20 
REMARK    5  A    between atoms: C_24  and  C_28 
REMARK       I    between atoms: C_28  and  N_30 
REMARK    6  A    between atoms: C_32  and  O_33 
ROOT
HETATM    1  C   UNL     1       4.262   6.927  21.712  0.00  0.00     0.066 C 
HETATM    2  C   UNL     1       5.566   6.621  21.267  0.00  0.00     0.083 C 
HETATM    3  C   UNL     1       5.838   6.244  19.943  0.00  0.00     0.069 C 
HETATM    4  C   UNL     1       3.222   6.909  20.762  0.00  0.00     0.036 C 
HETATM    5  C   UNL     1       3.444   6.383  19.465  0.00  0.00     0.029 C 
HETATM    6  C   UNL     1       4.751   6.111  19.085  0.00  0.00     0.065 C 
HETATM    7  C   UNL     1       2.637   5.933  18.367  0.00  0.00     0.157 C 
HETATM    8  N   UNL     1       3.418   5.593  17.316  0.00  0.00    -0.168 NA
HETATM    9  N   UNL     1       4.669   5.725  17.774  0.00  0.00    -0.277 N 
HETATM   10  H   UNL     1       5.435   5.498  17.151  0.00  0.00     0.189 HD
ENDROOT
BRANCH   1  11
HETATM   11  C   UNL     1       4.053   7.243  23.185  0.00  0.00     0.260 C 
HETATM   12  N   UNL     1       3.519   6.282  24.086  0.00  0.00    -0.318 N 
HETATM   13  C   UNL     1       3.202   4.926  23.627  0.00  0.00     0.159 C 
HETATM   14  O   UNL     1       4.455   8.366  23.509  0.00  0.00    -0.267 OA
BRANCH  12  15
HETATM   15  C   UNL     1       3.376   6.513  25.525  0.00  0.00     0.037 A 
HETATM   16  C   UNL     1       4.337   6.027  26.426  0.00  0.00     0.032 A 
HETATM   17  C   UNL     1       4.347   6.373  27.790  0.00  0.00     0.031 A 
HETATM   18  C   UNL     1       3.372   7.191  28.363  0.00  0.00     0.030 A 
HETATM   19  C   UNL     1       2.347   7.581  27.494  0.00  0.00     0.031 A 
HETATM   20  C   UNL     1       2.347   7.256  26.110  0.00  0.00     0.032 A 
BRANCH  18  21
HETATM   21  N   UNL     1       3.435   7.552  29.693  0.00  0.00    -0.377 N 
HETATM   22  C   UNL     1       3.764   6.626  30.788  0.00  0.00     0.149 C 
HETATM   23  C   UNL     1       2.584   6.520  31.770  0.00  0.00     0.187 C 
HETATM   24  O   UNL     1       2.191   7.812  32.267  0.00  0.00    -0.388 OA
HETATM   25  C   UNL     1       1.803   8.665  31.177  0.00  0.00     0.187 C 
HETATM   26  C   UNL     1       2.952   8.864  30.171  0.00  0.00     0.149 C 
ENDBRANCH  18  21
ENDBRANCH  12  15
ENDBRANCH   1  11
BRANCH   2  27
HETATM   27  O   UNL     1       6.666   6.655  22.087  0.00  0.00    -0.360 OA
HETATM   28  H   UNL     1       6.865   5.731  22.357  0.00  0.00     0.217 HD
ENDBRANCH   2  27
BRANCH   7  29
HETATM   29  C   UNL     1       1.158   5.806  18.349  0.00  0.00     0.275 C 
HETATM   30  O   UNL     1       0.461   6.807  18.170  0.00  0.00    -0.266 OA
HETATM   31  N   UNL     1       0.562   4.541  18.601  0.00  0.00    -0.344 N 
HETATM   32  C   UNL     1      -0.904   4.496  18.592  0.00  0.00     0.158 C 
HETATM   33  C   UNL     1       1.201   3.539  19.457  0.00  0.00     0.126 C 
HETATM   34  C   UNL     1      -1.508   3.083  18.403  0.00  0.00     0.139 C 
HETATM   35  C   UNL     1      -0.822   2.057  19.309  0.00  0.00     0.035 C 
HETATM   36  C   UNL     1       0.695   2.128  19.176  0.00  0.00     0.022 C 
BRANCH  34  37
HETATM   37  O   UNL     1      -1.396   2.602  17.056  0.00  0.00    -0.389 OA
HETATM   38  C   UNL     1      -2.184   1.448  16.795  0.00  0.00     0.202 C 
ENDBRANCH  34  37
ENDBRANCH   7  29
TORSDOF 6
ENDMDL
MODEL 7
REMARK VINA RESULT:    -7.252      2.660     11.381
REMARK INTER + INTRA:         -10.966
REMARK INTER:                 -10.160
REMARK INTRA:                  -0.806
REMARK UNBOUND:                -1.382
REMARK  6 active torsions:
REMARK  status: ('A' for Active; 'I' for Inactive)
REMARK    1  A    between atoms: N_6  and  C_7 
REMARK    2  A    between atoms: C_12  and  N_13 
REMARK       I    between atoms: N_13  and  C_15 
REMARK    3  A    between atoms: C_15  and  C_17 
REMARK    4  A    between atoms: C_18  and  O_20 
REMARK    5  A    between atoms: C_24  and  C_28 
REMARK       I    between atoms: C_28  and  N_30 
REMARK    6  A    between atoms: C_32  and  O_33 
ROOT
HETATM    1  C   UNL     1       3.692   6.523  19.939  0.00  0.00     0.066 C 
HETATM    2  C   UNL     1       4.167   7.825  19.675  0.00  0.00     0.083 C 
HETATM    3  C   UNL     1       4.438   8.748  20.697  0.00  0.00     0.069 C 
HETATM    4  C   UNL     1       3.554   6.135  21.287  0.00  0.00     0.036 C 
HETATM    5  C   UNL     1       3.670   7.093  22.325  0.00  0.00     0.029 C 
HETATM    6  C   UNL     1       4.152   8.354  22.000  0.00  0.00     0.065 C 
HETATM    7  C   UNL     1       3.329   7.172  23.717  0.00  0.00     0.157 C 
HETATM    8  N   UNL     1       3.758   8.344  24.240  0.00  0.00    -0.168 NA
HETATM    9  N   UNL     1       4.255   9.014  23.194  0.00  0.00    -0.277 N 
HETATM   10  H   UNL     1       4.622   9.946  23.351  0.00  0.00     0.189 HD
ENDROOT
BRANCH   1  11
HETATM   11  C   UNL     1       3.346   5.623  18.763  0.00  0.00     0.260 C 
HETATM   12  N   UNL     1       2.033   5.576  18.220  0.00  0.00    -0.318 N 
HETATM   13  C   UNL     1       0.977   6.445  18.750  0.00  0.00     0.159 C 
HETATM   14  O   UNL     1       4.320   5.015  18.306  0.00  0.00    -0.267 OA
BRANCH  12  15
HETATM   15  C   UNL     1       1.673   4.789  17.040  0.00  0.00     0.037 A 
HETATM   16  C   UNL     1       1.358   5.421  15.827  0.00  0.00     0.032 A 
HETATM   17  C   UNL     1       1.185   4.716  14.621  0.00  0.00     0.031 A 
HETATM   18  C   UNL     1       1.266   3.325  14.548  0.00  0.00     0.030 A 
HETATM   19  C   UNL     1       1.462   2.682  15.776  0.00  0.00     0.031 A 
HETATM   20  C   UNL     1       1.664   3.391  16.991  0.00  0.00     0.032 A 
BRANCH  18  21
HETATM   21  N   UNL     1       1.139   2.664  13.345  0.00  0.00    -0.377 N 
HETATM   22  C   UNL     1       1.040   3.334  12.038  0.00  0.00     0.149 C 
HETATM   23  C   UNL     1      -0.306   3.004  11.370  0.00  0.00     0.187 C 
HETATM   24  O   UNL     1      -0.506   1.584  11.255  0.00  0.00    -0.388 OA
HETATM   25  C   UNL     1      -0.480   0.972  12.555  0.00  0.00     0.187 C 
HETATM   26  C   UNL     1       0.861   1.214  13.272  0.00  0.00     0.149 C 
ENDBRANCH  18  21
ENDBRANCH  12  15
ENDBRANCH   1  11
BRANCH   2  27
HETATM   27  O   UNL     1       4.390   8.299  18.406  0.00  0.00    -0.360 OA
HETATM   28  H   UNL     1       4.353   7.533  17.792  0.00  0.00     0.217 HD
ENDBRANCH   2  27
BRANCH   7  29
HETATM   29  C   UNL     1       2.581   6.160  24.504  0.00  0.00     0.275 C 
HETATM   30  O   UNL     1       2.784   4.961  24.306  0.00  0.00    -0.266 OA
HETATM   31  N   UNL     1       1.596   6.586  25.434  0.00  0.00    -0.344 N 
HETATM   32  C   UNL     1       0.880   5.530  26.159  0.00  0.00     0.158 C 
HETATM   33  C   UNL     1       0.835   7.824  25.247  0.00  0.00     0.126 C 
HETATM   34  C   UNL     1       0.177   5.996  27.456  0.00  0.00     0.139 C 
HETATM   35  C   UNL     1      -0.610   7.290  27.231  0.00  0.00     0.035 C 
HETATM   36  C   UNL     1       0.252   8.351  26.553  0.00  0.00     0.022 C 
BRANCH  34  37
HETATM   37  O   UNL     1       1.092   6.238  28.534  0.00  0.00    -0.389 OA
HETATM   38  C   UNL     1       0.516   6.069  29.822  0.00  0.00     0.202 C 
ENDBRANCH  34  37
ENDBRANCH   7  29
TORSDOF 6
ENDMDL
MODEL 8
REMARK VINA RESULT:    -7.049      3.963     11.087
REMARK INTER + INTRA:         -10.698
REMARK INTER:                  -9.316
REMARK INTRA:                  -1.382
REMARK UNBOUND:                -1.382
REMARK  6 active torsions:
REMARK  status: ('A' for Active; 'I' for Inactive)
REMARK    1  A    between atoms: N_6  and  C_7 
REMARK    2  A    between atoms: C_12  and  N_13 
REMARK       I    between atoms: N_13  and  C_15 
REMARK    3  A    between atoms: C_15  and  C_17 
REMARK    4  A    between atoms: C_18  and  O_20 
REMARK    5  A    between atoms: C_24  and  C_28 
REMARK       I    between atoms: C_28  and  N_30 
REMARK    6  A    between atoms: C_32  and  O_33 
ROOT
HETATM    1  C   UNL     1       3.721   6.449  19.862  0.00  0.00     0.066 C 
HETATM    2  C   UNL     1       4.104   7.791  19.657  0.00  0.00     0.083 C 
HETATM    3  C   UNL     1       4.356   8.671  20.721  0.00  0.00     0.069 C 
HETATM    4  C   UNL     1       3.658   5.978  21.188  0.00  0.00     0.036 C 
HETATM    5  C   UNL     1       3.754   6.882  22.275  0.00  0.00     0.029 C 
HETATM    6  C   UNL     1       4.144   8.187  22.008  0.00  0.00     0.065 C 
HETATM    7  C   UNL     1       3.462   6.862  23.681  0.00  0.00     0.157 C 
HETATM    8  N   UNL     1       3.837   8.028  24.256  0.00  0.00    -0.168 NA
HETATM    9  N   UNL     1       4.252   8.786  23.234  0.00  0.00    -0.277 N 
HETATM   10  H   UNL     1       4.566   9.729  23.432  0.00  0.00     0.189 HD
ENDROOT
BRANCH   1  11
HETATM   11  C   UNL     1       3.387   5.595  18.648  0.00  0.00     0.260 C 
HETATM   12  N   UNL     1       2.046   5.406  18.215  0.00  0.00    -0.318 N 
HETATM   13  C   UNL     1       0.940   6.080  18.902  0.00  0.00     0.159 C 
HETATM   14  O   UNL     1       4.385   5.162  18.062  0.00  0.00    -0.267 OA
BRANCH  12  15
HETATM   15  C   UNL     1       1.683   4.662  17.008  0.00  0.00     0.037 A 
HETATM   16  C   UNL     1       1.309   5.338  15.836  0.00  0.00     0.032 A 
HETATM   17  C   UNL     1       1.129   4.685  14.602  0.00  0.00     0.031 A 
HETATM   18  C   UNL     1       1.262   3.303  14.460  0.00  0.00     0.030 A 
HETATM   19  C   UNL     1       1.517   2.611  15.649  0.00  0.00     0.031 A 
HETATM   20  C   UNL     1       1.727   3.269  16.891  0.00  0.00     0.032 A 
BRANCH  18  21
HETATM   21  N   UNL     1       1.126   2.696  13.229  0.00  0.00    -0.377 N 
HETATM   22  C   UNL     1       0.743   3.401  11.995  0.00  0.00     0.149 C 
HETATM   23  C   UNL     1      -0.581   2.839  11.448  0.00  0.00     0.187 C 
HETATM   24  O   UNL     1      -0.510   1.417  11.247  0.00  0.00    -0.388 OA
HETATM   25  C   UNL     1      -0.210   0.754  12.486  0.00  0.00     0.187 C 
HETATM   26  C   UNL     1       1.132   1.226  13.075  0.00  0.00     0.149 C 
ENDBRANCH  18  21
ENDBRANCH  12  15
ENDBRANCH   1  11
BRANCH   2  27
HETATM   27  O   UNL     1       4.249   8.348  18.411  0.00  0.00    -0.360 OA
HETATM   28  H   UNL     1       4.839   9.129  18.501  0.00  0.00     0.217 HD
ENDBRANCH   2  27
BRANCH   7  29
HETATM   29  C   UNL     1       2.808   5.762  24.433  0.00  0.00     0.275 C 
HETATM   30  O   UNL     1       1.733   5.965  25.001  0.00  0.00    -0.266 OA
HETATM   31  N   UNL     1       3.461   4.505  24.542  0.00  0.00    -0.344 N 
HETATM   32  C   UNL     1       2.768   3.473  25.320  0.00  0.00     0.158 C 
HETATM   33  C   UNL     1       4.921   4.385  24.528  0.00  0.00     0.126 C 
HETATM   34  C   UNL     1       3.241   2.026  25.045  0.00  0.00     0.139 C 
HETATM   35  C   UNL     1       4.769   1.930  25.037  0.00  0.00     0.035 C 
HETATM   36  C   UNL     1       5.385   2.989  24.129  0.00  0.00     0.022 C 
BRANCH  34  37
HETATM   37  O   UNL     1       2.778   1.515  23.787  0.00  0.00    -0.389 OA
HETATM   38  C   UNL     1       1.749   0.542  23.910  0.00  0.00     0.202 C 
ENDBRANCH  34  37
ENDBRANCH   7  29
TORSDOF 6
ENDMDL
