MODEL 1
REMARK VINA RESULT:    -6.803      0.000      0.000
REMARK INTER + INTRA:          -9.076
REMARK INTER:                  -8.056
REMARK INTRA:                  -1.020
REMARK UNBOUND:                -1.080
REMARK  4 active torsions:
REMARK  status: ('A' for Active; 'I' for Inactive)
REMARK    1  A    between atoms: O_1  and  C_2 
REMARK    2  A    between atoms: C_4  and  O_5 
REMARK    3  A    between atoms: C_6  and  C_9 
REMARK    4  A    between atoms: N_15  and  C_16 
ROOT
HETATM    1  C   UNL     1       8.274  13.677  23.520  0.00  0.00     0.172 A 
HETATM    2  N   UNL     1       9.496  13.602  23.980  0.00  0.00    -0.151 NA
HETATM    3  N   UNL     1       9.482  14.295  25.152  0.00  0.00    -0.226 N 
HETATM    4  H   UNL     1      10.254  14.272  25.805  0.00  0.00     0.194 HD
HETATM    5  C   UNL     1       8.202  14.743  25.444  0.00  0.00     0.349 A 
HETATM    6  O   UNL     1       7.855  15.221  26.511  0.00  0.00    -0.245 OA
HETATM    7  N   UNL     1       7.439  14.422  24.330  0.00  0.00    -0.243 N 
ENDROOT
BRANCH   1   8
HETATM    8  C   UNL     1       7.868  13.018  22.239  0.00  0.00     0.045 C 
HETATM    9  C   UNL     1       8.561  13.291  21.044  0.00  0.00     0.082 C 
HETATM   10  C   UNL     1       8.287  12.585  19.867  0.00  0.00     0.074 C 
HETATM   11  C   UNL     1       7.319  11.592  19.882  0.00  0.00     0.068 C 
HETATM   12  C   UNL     1       6.561  11.362  21.020  0.00  0.00     0.037 C 
HETATM   13  C   UNL     1       6.804  12.106  22.180  0.00  0.00     0.021 C 
BRANCH   9  14
HETATM   14  O   UNL     1       9.558  14.226  20.999  0.00  0.00    -0.360 OA
HETATM   15  H   UNL     1       9.983  14.290  21.869  0.00  0.00     0.217 HD
ENDBRANCH   9  14
BRANCH  11  16
HETATM   16  O   UNL     1       7.082  10.811  18.790  0.00  0.00    -0.361 OA
HETATM   17  H   UNL     1       7.106   9.876  19.056  0.00  0.00     0.217 HD
ENDBRANCH  11  16
ENDBRANCH   1   8
BRANCH   7  18
HETATM   18  C   UNL     1       6.063  14.720  24.241  0.00  0.00     0.067 A 
HETATM   19  C   UNL     1       5.089  13.846  24.770  0.00  0.00     0.061 A 
HETATM   20 CL   UNL     1       5.484  12.367  25.581  0.00  0.00    -0.082 Cl
HETATM   21  C   UNL     1       3.740  14.220  24.793  0.00  0.00     0.026 A 
HETATM   22  C   UNL     1       3.343  15.459  24.295  0.00  0.00     0.002 A 
HETATM   23  C   UNL     1       4.289  16.313  23.733  0.00  0.00     0.002 A 
HETATM   24  C   UNL     1       5.636  15.938  23.687  0.00  0.00     0.032 A 
ENDBRANCH   7  18
TORSDOF 4
ENDMDL
MODEL 2
REMARK VINA RESULT:    -6.469      2.579      3.621
REMARK INTER + INTRA:          -8.684
REMARK INTER:                  -7.671
REMARK INTRA:                  -1.013
REMARK UNBOUND:                -1.080
REMARK  4 active torsions:
REMARK  status: ('A' for Active; 'I' for Inactive)
REMARK    1  A    between atoms: O_1  and  C_2 
REMARK    2  A    between atoms: C_4  and  O_5 
REMARK    3  A    between atoms: C_6  and  C_9 
REMARK    4  A    between atoms: N_15  and  C_16 
ROOT
HETATM    1  C   UNL     1       7.716  12.492  21.068  0.00  0.00     0.172 A 
HETATM    2  N   UNL     1       8.566  12.323  20.089  0.00  0.00    -0.151 NA
HETATM    3  N   UNL     1       9.308  13.464  20.057  0.00  0.00    -0.226 N 
HETATM    4  H   UNL     1      10.147  13.550  19.498  0.00  0.00     0.194 HD
HETATM    5  C   UNL     1       8.943  14.320  21.086  0.00  0.00     0.349 A 
HETATM    6  O   UNL     1       9.558  15.319  21.415  0.00  0.00    -0.245 OA
HETATM    7  N   UNL     1       7.840  13.724  21.681  0.00  0.00    -0.243 N 
ENDROOT
BRANCH   1   8
HETATM    8  C   UNL     1       6.721  11.440  21.445  0.00  0.00     0.045 C 
HETATM    9  C   UNL     1       7.146  10.228  22.024  0.00  0.00     0.082 C 
HETATM   10  C   UNL     1       6.226   9.291  22.508  0.00  0.00     0.074 C 
HETATM   11  C   UNL     1       4.869   9.566  22.423  0.00  0.00     0.068 C 
HETATM   12  C   UNL     1       4.420  10.710  21.780  0.00  0.00     0.037 C 
HETATM   13  C   UNL     1       5.343  11.620  21.252  0.00  0.00     0.021 C 
BRANCH   9  14
HETATM   14  O   UNL     1       8.475   9.941  22.173  0.00  0.00    -0.360 OA
HETATM   15  H   UNL     1       8.885  10.596  22.761  0.00  0.00     0.217 HD
ENDBRANCH   9  14
BRANCH  11  16
HETATM   16  O   UNL     1       3.937   8.733  22.965  0.00  0.00    -0.361 OA
HETATM   17  H   UNL     1       4.192   8.523  23.879  0.00  0.00     0.217 HD
ENDBRANCH  11  16
ENDBRANCH   1   8
BRANCH   7  18
HETATM   18  C   UNL     1       7.170  14.298  22.783  0.00  0.00     0.067 A 
HETATM   19  C   UNL     1       7.706  14.222  24.086  0.00  0.00     0.061 A 
HETATM   20 CL   UNL     1       9.216  13.452  24.446  0.00  0.00    -0.082 Cl
HETATM   21  C   UNL     1       7.098  14.911  25.143  0.00  0.00     0.026 A 
HETATM   22  C   UNL     1       5.958  15.679  24.920  0.00  0.00     0.002 A 
HETATM   23  C   UNL     1       5.397  15.729  23.647  0.00  0.00     0.002 A 
HETATM   24  C   UNL     1       5.985  15.027  22.590  0.00  0.00     0.032 A 
ENDBRANCH   7  18
TORSDOF 4
ENDMDL
MODEL 3
REMARK VINA RESULT:    -6.348      1.386      1.675
REMARK INTER + INTRA:          -8.542
REMARK INTER:                  -7.413
REMARK INTRA:                  -1.129
REMARK UNBOUND:                -1.080
REMARK  4 active torsions:
REMARK  status: ('A' for Active; 'I' for Inactive)
REMARK    1  A    between atoms: O_1  and  C_2 
REMARK    2  A    between atoms: C_4  and  O_5 
REMARK    3  A    between atoms: C_6  and  C_9 
REMARK    4  A    between atoms: N_15  and  C_16 
ROOT
HETATM    1  C   UNL     1       8.233  13.145  23.770  0.00  0.00     0.172 A 
HETATM    2  N   UNL     1       9.467  13.067  24.198  0.00  0.00    -0.151 NA
HETATM    3  N   UNL     1       9.558  13.986  25.198  0.00  0.00    -0.226 N 
HETATM    4  H   UNL     1      10.356  14.036  25.817  0.00  0.00     0.194 HD
HETATM    5  C   UNL     1       8.330  14.589  25.428  0.00  0.00     0.349 A 
HETATM    6  O   UNL     1       8.069  15.305  26.380  0.00  0.00    -0.245 OA
HETATM    7  N   UNL     1       7.495  14.108  24.429  0.00  0.00    -0.243 N 
ENDROOT
BRANCH   1   8
HETATM    8  C   UNL     1       7.720  12.270  22.669  0.00  0.00     0.045 C 
HETATM    9  C   UNL     1       7.604  10.879  22.856  0.00  0.00     0.082 C 
HETATM   10  C   UNL     1       6.999  10.063  21.892  0.00  0.00     0.074 C 
HETATM   11  C   UNL     1       6.498  10.639  20.734  0.00  0.00     0.068 C 
HETATM   12  C   UNL     1       6.676  11.992  20.485  0.00  0.00     0.037 C 
HETATM   13  C   UNL     1       7.326  12.794  21.429  0.00  0.00     0.021 C 
BRANCH   9  14
HETATM   14  O   UNL     1       8.039  10.278  24.005  0.00  0.00    -0.360 OA
HETATM   15  H   UNL     1       7.495   9.495  24.188  0.00  0.00     0.217 HD
ENDBRANCH   9  14
BRANCH  11  16
HETATM   16  O   UNL     1       5.816   9.905  19.811  0.00  0.00    -0.361 OA
HETATM   17  H   UNL     1       6.282   9.951  18.960  0.00  0.00     0.217 HD
ENDBRANCH  11  16
ENDBRANCH   1   8
BRANCH   7  18
HETATM   18  C   UNL     1       6.141  14.492  24.321  0.00  0.00     0.067 A 
HETATM   19  C   UNL     1       5.106  13.681  24.835  0.00  0.00     0.061 A 
HETATM   20 CL   UNL     1       5.395  12.180  25.650  0.00  0.00    -0.082 Cl
HETATM   21  C   UNL     1       3.783  14.141  24.839  0.00  0.00     0.026 A 
HETATM   22  C   UNL     1       3.473  15.402  24.337  0.00  0.00     0.002 A 
HETATM   23  C   UNL     1       4.479  16.194  23.790  0.00  0.00     0.002 A 
HETATM   24  C   UNL     1       5.800  15.735  23.763  0.00  0.00     0.032 A 
ENDBRANCH   7  18
TORSDOF 4
ENDMDL
MODEL 4
REMARK VINA RESULT:    -6.322      1.371      1.727
REMARK INTER + INTRA:          -8.511
REMARK INTER:                  -7.910
REMARK INTRA:                  -0.600
REMARK UNBOUND:                -1.080
REMARK  4 active torsions:
REMARK  status: ('A' for Active; 'I' for Inactive)
REMARK    1  A    between atoms: O_1  and  C_2 
REMARK    2  A    between atoms: C_4  and  O_5 
REMARK    3  A    between atoms: C_6  and  C_9 
REMARK    4  A    between atoms: N_15  and  C_16 
ROOT
HETATM    1  C   UNL     1       7.658  12.569  22.547  0.00  0.00     0.172 A 
HETATM    2  N   UNL     1       8.865  12.082  22.682  0.00  0.00    -0.151 NA
HETATM    3  N   UNL     1       9.369  12.680  23.797  0.00  0.00    -0.226 N 
HETATM    4  H   UNL     1      10.231  12.377  24.232  0.00  0.00     0.194 HD
HETATM    5  C   UNL     1       8.419  13.499  24.391  0.00  0.00     0.349 A 
HETATM    6  O   UNL     1       8.525  14.005  25.495  0.00  0.00    -0.245 OA
HETATM    7  N   UNL     1       7.340  13.498  23.518  0.00  0.00    -0.243 N 
ENDROOT
BRANCH   1   8
HETATM    8  C   UNL     1       6.753  12.144  21.433  0.00  0.00     0.045 C 
HETATM    9  C   UNL     1       7.287  11.696  20.209  0.00  0.00     0.082 C 
HETATM   10  C   UNL     1       6.466  11.166  19.208  0.00  0.00     0.074 C 
HETATM   11  C   UNL     1       5.099  11.073  19.429  0.00  0.00     0.068 C 
HETATM   12  C   UNL     1       4.537  11.586  20.589  0.00  0.00     0.037 C 
HETATM   13  C   UNL     1       5.357  12.161  21.565  0.00  0.00     0.021 C 
BRANCH   9  14
HETATM   14  O   UNL     1       8.633  11.722  19.970  0.00  0.00    -0.360 OA
HETATM   15  H   UNL     1       8.927  10.847  19.667  0.00  0.00     0.217 HD
ENDBRANCH   9  14
BRANCH  11  16
HETATM   16  O   UNL     1       4.269  10.477  18.528  0.00  0.00    -0.361 OA
HETATM   17  H   UNL     1       3.352  10.732  18.722  0.00  0.00     0.217 HD
ENDBRANCH  11  16
ENDBRANCH   1   8
BRANCH   7  18
HETATM   18  C   UNL     1       6.158  14.225  23.773  0.00  0.00     0.067 A 
HETATM   19  C   UNL     1       5.110  13.672  24.541  0.00  0.00     0.061 A 
HETATM   20 CL   UNL     1       5.184  12.093  25.248  0.00  0.00    -0.082 Cl
HETATM   21  C   UNL     1       4.005  14.455  24.897  0.00  0.00     0.026 A 
HETATM   22  C   UNL     1       3.926  15.787  24.497  0.00  0.00     0.002 A 
HETATM   23  C   UNL     1       4.933  16.331  23.705  0.00  0.00     0.002 A 
HETATM   24  C   UNL     1       6.031  15.550  23.327  0.00  0.00     0.032 A 
ENDBRANCH   7  18
TORSDOF 4
ENDMDL
MODEL 5
REMARK VINA RESULT:    -6.315      3.194      4.448
REMARK INTER + INTRA:          -8.503
REMARK INTER:                  -7.420
REMARK INTRA:                  -1.083
REMARK UNBOUND:                -1.080
REMARK  4 active torsions:
REMARK  status: ('A' for Active; 'I' for Inactive)
REMARK    1  A    between atoms: O_1  and  C_2 
REMARK    2  A    between atoms: C_4  and  O_5 
REMARK    3  A    between atoms: C_6  and  C_9 
REMARK    4  A    between atoms: N_15  and  C_16 
ROOT
HETATM    1  C   UNL     1       3.275  12.429  22.841  0.00  0.00     0.172 A 
HETATM    2  N   UNL     1       1.993  12.166  22.857  0.00  0.00    -0.151 NA
HETATM    3  N   UNL     1       1.453  13.071  23.720  0.00  0.00    -0.226 N 
HETATM    4  H   UNL     1       0.454  13.204  23.810  0.00  0.00     0.194 HD
HETATM    5  C   UNL     1       2.422  13.947  24.187  0.00  0.00     0.349 A 
HETATM    6  O   UNL     1       2.196  14.967  24.816  0.00  0.00    -0.245 OA
HETATM    7  N   UNL     1       3.623  13.464  23.687  0.00  0.00    -0.243 N 
ENDROOT
BRANCH   1   8
HETATM    8  C   UNL     1       4.231  11.656  21.988  0.00  0.00     0.045 C 
HETATM    9  C   UNL     1       4.376  10.265  22.156  0.00  0.00     0.082 C 
HETATM   10  C   UNL     1       5.159   9.504  21.281  0.00  0.00     0.074 C 
HETATM   11  C   UNL     1       5.799  10.132  20.223  0.00  0.00     0.068 C 
HETATM   12  C   UNL     1       5.744  11.511  20.084  0.00  0.00     0.037 C 
HETATM   13  C   UNL     1       5.001  12.273  20.991  0.00  0.00     0.021 C 
BRANCH   9  14
HETATM   14  O   UNL     1       3.722   9.599  23.156  0.00  0.00    -0.360 OA
HETATM   15  H   UNL     1       3.523  10.214  23.881  0.00  0.00     0.217 HD
ENDBRANCH   9  14
BRANCH  11  16
HETATM   16  O   UNL     1       6.493   9.425  19.288  0.00  0.00    -0.361 OA
HETATM   17  H   UNL     1       5.868   8.923  18.739  0.00  0.00     0.217 HD
ENDBRANCH  11  16
ENDBRANCH   1   8
BRANCH   7  18
HETATM   18  C   UNL     1       4.860  14.092  23.945  0.00  0.00     0.067 A 
HETATM   19  C   UNL     1       5.781  13.544  24.864  0.00  0.00     0.061 A 
HETATM   20 CL   UNL     1       5.496  12.070  25.727  0.00  0.00    -0.082 Cl
HETATM   21  C   UNL     1       7.057  14.106  25.006  0.00  0.00     0.026 A 
HETATM   22  C   UNL     1       7.430  15.209  24.243  0.00  0.00     0.002 A 
HETATM   23  C   UNL     1       6.516  15.783  23.364  0.00  0.00     0.002 A 
HETATM   24  C   UNL     1       5.233  15.242  23.231  0.00  0.00     0.032 A 
ENDBRANCH   7  18
TORSDOF 4
ENDMDL
MODEL 6
REMARK VINA RESULT:    -6.196      3.002      5.324
REMARK INTER + INTRA:          -8.363
REMARK INTER:                  -7.466
REMARK INTRA:                  -0.897
REMARK UNBOUND:                -1.080
REMARK  4 active torsions:
REMARK  status: ('A' for Active; 'I' for Inactive)
REMARK    1  A    between atoms: O_1  and  C_2 
REMARK    2  A    between atoms: C_4  and  O_5 
REMARK    3  A    between atoms: C_6  and  C_9 
REMARK    4  A    between atoms: N_15  and  C_16 
ROOT
HETATM    1  C   UNL     1       6.384  12.715  21.608  0.00  0.00     0.172 A 
HETATM    2  N   UNL     1       6.231  11.991  20.529  0.00  0.00    -0.151 NA
HETATM    3  N   UNL     1       7.481  11.559  20.207  0.00  0.00    -0.226 N 
HETATM    4  H   UNL     1       7.645  10.850  19.504  0.00  0.00     0.194 HD
HETATM    5  C   UNL     1       8.407  11.976  21.152  0.00  0.00     0.349 A 
HETATM    6  O   UNL     1       9.558  11.582  21.224  0.00  0.00    -0.245 OA
HETATM    7  N   UNL     1       7.702  12.811  22.009  0.00  0.00    -0.243 N 
ENDROOT
BRANCH   1   8
HETATM    8  C   UNL     1       5.226  13.365  22.297  0.00  0.00     0.045 C 
HETATM    9  C   UNL     1       3.990  12.698  22.401  0.00  0.00     0.082 C 
HETATM   10  C   UNL     1       2.938  13.228  23.158  0.00  0.00     0.074 C 
HETATM   11  C   UNL     1       3.122  14.430  23.826  0.00  0.00     0.068 C 
HETATM   12  C   UNL     1       4.297  15.150  23.671  0.00  0.00     0.037 C 
HETATM   13  C   UNL     1       5.325  14.641  22.872  0.00  0.00     0.021 C 
BRANCH   9  14
HETATM   14  O   UNL     1       3.784  11.487  21.800  0.00  0.00    -0.360 OA
HETATM   15  H   UNL     1       4.463  11.340  21.122  0.00  0.00     0.217 HD
ENDBRANCH   9  14
BRANCH  11  16
HETATM   16  O   UNL     1       2.166  14.939  24.653  0.00  0.00    -0.361 OA
HETATM   17  H   UNL     1       1.945  15.841  24.366  0.00  0.00     0.217 HD
ENDBRANCH  11  16
ENDBRANCH   1   8
BRANCH   7  18
HETATM   18  C   UNL     1       8.304  13.442  23.118  0.00  0.00     0.067 A 
HETATM   19  C   UNL     1       8.977  14.676  22.981  0.00  0.00     0.061 A 
HETATM   20 CL   UNL     1       9.105  15.524  21.477  0.00  0.00    -0.082 Cl
HETATM   21  C   UNL     1       9.449  15.353  24.113  0.00  0.00     0.026 A 
HETATM   22  C   UNL     1       9.261  14.818  25.384  0.00  0.00     0.002 A 
HETATM   23  C   UNL     1       8.636  13.582  25.528  0.00  0.00     0.002 A 
HETATM   24  C   UNL     1       8.180  12.889  24.402  0.00  0.00     0.032 A 
ENDBRANCH   7  18
TORSDOF 4
ENDMDL
MODEL 7
REMARK VINA RESULT:    -6.173      1.974      2.505
REMARK INTER + INTRA:          -8.336
REMARK INTER:                  -7.357
REMARK INTRA:                  -0.979
REMARK UNBOUND:                -1.080
REMARK  4 active torsions:
REMARK  status: ('A' for Active; 'I' for Inactive)
REMARK    1  A    between atoms: O_1  and  C_2 
REMARK    2  A    between atoms: C_4  and  O_5 
REMARK    3  A    between atoms: C_6  and  C_9 
REMARK    4  A    between atoms: N_15  and  C_16 
ROOT
HETATM    1  C   UNL     1       7.862  11.954  22.720  0.00  0.00     0.172 A 
HETATM    2  N   UNL     1       8.941  11.234  22.887  0.00  0.00    -0.151 NA
HETATM    3  N   UNL     1       9.558  11.762  23.980  0.00  0.00    -0.226 N 
HETATM    4  H   UNL     1      10.338  11.306  24.435  0.00  0.00     0.194 HD
HETATM    5  C   UNL     1       8.799  12.786  24.529  0.00  0.00     0.349 A 
HETATM    6  O   UNL     1       9.008  13.307  25.611  0.00  0.00    -0.245 OA
HETATM    7  N   UNL     1       7.744  12.971  23.647  0.00  0.00    -0.243 N 
ENDROOT
BRANCH   1   8
HETATM    8  C   UNL     1       6.888  11.677  21.617  0.00  0.00     0.045 C 
HETATM    9  C   UNL     1       7.323  11.615  20.279  0.00  0.00     0.082 C 
HETATM   10  C   UNL     1       6.458  11.223  19.251  0.00  0.00     0.074 C 
HETATM   11  C   UNL     1       5.149  10.882  19.558  0.00  0.00     0.068 C 
HETATM   12  C   UNL     1       4.671  11.018  20.853  0.00  0.00     0.037 C 
HETATM   13  C   UNL     1       5.526  11.459  21.868  0.00  0.00     0.021 C 
BRANCH   9  14
HETATM   14  O   UNL     1       8.618  11.893  19.939  0.00  0.00    -0.360 OA
HETATM   15  H   UNL     1       8.784  12.844  20.043  0.00  0.00     0.217 HD
ENDBRANCH   9  14
BRANCH  11  16
HETATM   16  O   UNL     1       4.295  10.402  18.611  0.00  0.00    -0.361 OA
HETATM   17  H   UNL     1       4.677   9.601  18.215  0.00  0.00     0.217 HD
ENDBRANCH  11  16
ENDBRANCH   1   8
BRANCH   7  18
HETATM   18  C   UNL     1       6.739  13.938  23.859  0.00  0.00     0.067 A 
HETATM   19  C   UNL     1       6.804  15.208  23.247  0.00  0.00     0.061 A 
HETATM   20 CL   UNL     1       8.086  15.682  22.183  0.00  0.00    -0.082 Cl
HETATM   21  C   UNL     1       5.734  16.104  23.359  0.00  0.00     0.026 A 
HETATM   22  C   UNL     1       4.592  15.752  24.075  0.00  0.00     0.002 A 
HETATM   23  C   UNL     1       4.532  14.518  24.717  0.00  0.00     0.002 A 
HETATM   24  C   UNL     1       5.606  13.626  24.628  0.00  0.00     0.032 A 
ENDBRANCH   7  18
TORSDOF 4
ENDMDL
MODEL 8
REMARK VINA RESULT:    -6.121      2.087      5.157
REMARK INTER + INTRA:          -8.274
REMARK INTER:                  -7.194
REMARK INTRA:                  -1.080
REMARK UNBOUND:                -1.080
REMARK  4 active torsions:
REMARK  status: ('A' for Active; 'I' for Inactive)
REMARK    1  A    between atoms: O_1  and  C_2 
REMARK    2  A    between atoms: C_4  and  O_5 
REMARK    3  A    between atoms: C_6  and  C_9 
REMARK    4  A    between atoms: N_15  and  C_16 
ROOT
HETATM    1  C   UNL     1       7.800  14.348  22.162  0.00  0.00     0.172 A 
HETATM    2  N   UNL     1       8.719  15.225  21.848  0.00  0.00    -0.151 NA
HETATM    3  N   UNL     1       9.558  14.574  20.996  0.00  0.00    -0.226 N 
HETATM    4  H   UNL     1      10.276  15.055  20.469  0.00  0.00     0.194 HD
HETATM    5  C   UNL     1       9.099  13.292  20.733  0.00  0.00     0.349 A 
HETATM    6  O   UNL     1       9.539  12.555  19.867  0.00  0.00    -0.245 OA
HETATM    7  N   UNL     1       8.007  13.117  21.571  0.00  0.00    -0.243 N 
ENDROOT
BRANCH   1   8
HETATM    8  C   UNL     1       6.666  14.684  23.078  0.00  0.00     0.045 C 
HETATM    9  C   UNL     1       6.914  15.120  24.394  0.00  0.00     0.082 C 
HETATM   10  C   UNL     1       5.878  15.569  25.220  0.00  0.00     0.074 C 
HETATM   11  C   UNL     1       4.581  15.592  24.729  0.00  0.00     0.068 C 
HETATM   12  C   UNL     1       4.295  15.088  23.470  0.00  0.00     0.037 C 
HETATM   13  C   UNL     1       5.328  14.593  22.667  0.00  0.00     0.021 C 
BRANCH   9  14
HETATM   14  O   UNL     1       8.185  15.162  24.900  0.00  0.00    -0.360 OA
HETATM   15  H   UNL     1       8.352  14.362  25.426  0.00  0.00     0.217 HD
ENDBRANCH   9  14
BRANCH  11  16
HETATM   16  O   UNL     1       3.552  16.109  25.458  0.00  0.00    -0.361 OA
HETATM   17  H   UNL     1       2.905  15.408  25.637  0.00  0.00     0.217 HD
ENDBRANCH  11  16
ENDBRANCH   1   8
BRANCH   7  18
HETATM   18  C   UNL     1       7.256  11.923  21.600  0.00  0.00     0.067 A 
HETATM   19  C   UNL     1       7.349  11.025  22.686  0.00  0.00     0.061 A 
HETATM   20 CL   UNL     1       8.356  11.310  24.066  0.00  0.00    -0.082 Cl
HETATM   21  C   UNL     1       6.498   9.915  22.762  0.00  0.00     0.026 A 
HETATM   22  C   UNL     1       5.550   9.684  21.768  0.00  0.00     0.002 A 
HETATM   23  C   UNL     1       5.476  10.539  20.672  0.00  0.00     0.002 A 
HETATM   24  C   UNL     1       6.336  11.639  20.577  0.00  0.00     0.032 A 
ENDBRANCH   7  18
TORSDOF 4
ENDMDL
