MODEL 1
REMARK VINA RESULT:    -9.977      0.000      0.000
REMARK INTER + INTRA:         -15.583
REMARK INTER:                 -14.044
REMARK INTRA:                  -1.540
REMARK UNBOUND:                -1.523
REMARK  8 active torsions:
REMARK  status: ('A' for Active; 'I' for Inactive)
REMARK    1  A    between atoms: O_1  and  C_2 
REMARK    2  A    between atoms: C_4  and  O_5 
REMARK    3  A    between atoms: C_6  and  C_10 
REMARK    4  A    between atoms: C_13  and  C_14 
REMARK       I    between atoms: C_14  and  N_16 
REMARK    5  A    between atoms: N_16  and  C_17 
REMARK    6  A    between atoms: C_19  and  C_20 
REMARK    7  A    between atoms: C_23  and  C_26 
REMARK    8  A    between atoms: C_26  and  N_27 
ROOT
HETATM    1  C   UNL     1      -0.871  10.056  26.004  0.00  0.00     0.128 A 
HETATM    2  O   UNL     1      -1.513  10.516  27.121  0.00  0.00    -0.211 OA
HETATM    3  N   UNL     1      -1.205   9.729  28.220  0.00  0.00    -0.121 NA
HETATM    4  C   UNL     1      -0.416   8.745  27.757  0.00  0.00     0.165 A 
HETATM    5  C   UNL     1      -0.178   8.905  26.353  0.00  0.00     0.048 A 
ENDROOT
BRANCH   5   6
HETATM    6  C   UNL     1       0.768   8.194  25.512  0.00  0.00    -0.021 A 
HETATM    7  C   UNL     1       2.152   8.324  25.665  0.00  0.00     0.013 A 
HETATM    8  C   UNL     1       3.024   7.610  24.831  0.00  0.00     0.010 A 
HETATM    9  C   UNL     1       2.518   6.774  23.823  0.00  0.00    -0.033 A 
HETATM   10  C   UNL     1       1.132   6.637  23.685  0.00  0.00     0.010 A 
HETATM   11  C   UNL     1       0.270   7.333  24.527  0.00  0.00     0.013 A 
BRANCH   9  12
HETATM   12  C   UNL     1       3.419   6.074  22.846  0.00  0.00     0.273 C 
BRANCH  12  13
HETATM   13  N   UNL     1       3.332   6.570  21.422  0.00  0.00    -0.063 N 
HETATM   14  H   UNL     1       2.376   6.914  21.273  0.00  0.00     0.280 HD
HETATM   15  C   UNL     1       4.283   7.730  21.143  0.00  0.00     0.261 C 
HETATM   16  C   UNL     1       4.244   8.084  19.654  0.00  0.00     0.195 C 
HETATM   17  O   UNL     1       4.613   6.949  18.865  0.00  0.00    -0.388 OA
HETATM   18  C   UNL     1       3.668   5.887  19.011  0.00  0.00     0.195 C 
HETATM   19  C   UNL     1       3.579   5.409  20.463  0.00  0.00     0.261 C 
ENDBRANCH  12  13
ENDBRANCH   9  12
ENDBRANCH   5   6
BRANCH   1  20
HETATM   20  C   UNL     1      -0.942  10.927  24.815  0.00  0.00     0.035 A 
HETATM   21  C   UNL     1      -2.121  11.142  24.079  0.00  0.00     0.081 A 
HETATM   22  C   UNL     1      -2.139  12.025  22.992  0.00  0.00     0.074 A 
HETATM   23  C   UNL     1      -0.974  12.696  22.624  0.00  0.00     0.074 A 
HETATM   24  C   UNL     1       0.218  12.492  23.316  0.00  0.00    -0.028 A 
HETATM   25  C   UNL     1       0.213  11.614  24.409  0.00  0.00     0.026 A 
HETATM   26  C   UNL     1       1.464  13.249  22.965  0.00  0.00     0.051 C 
BRANCH  21  27
HETATM   27  O   UNL     1      -3.267  10.480  24.417  0.00  0.00    -0.360 OA
HETATM   28  H   UNL     1      -3.177  10.091  25.304  0.00  0.00     0.217 HD
ENDBRANCH  21  27
BRANCH  23  29
HETATM   29  O   UNL     1      -0.972  13.576  21.581  0.00  0.00    -0.360 OA
HETATM   30  H   UNL     1      -0.857  14.481  21.918  0.00  0.00     0.217 HD
ENDBRANCH  23  29
ENDBRANCH   1  20
BRANCH   4  31
HETATM   31  C   UNL     1       0.162   7.717  28.637  0.00  0.00     0.273 C 
HETATM   32  O   UNL     1       0.430   6.586  28.238  0.00  0.00    -0.266 OA
HETATM   33  N   UNL     1       0.482   8.140  29.912  0.00  0.00    -0.356 N 
HETATM   34  H   UNL     1       0.244   9.093  30.166  0.00  0.00     0.162 HD
BRANCH  33  35
HETATM   35  C   UNL     1       1.178   7.294  30.862  0.00  0.00     0.118 C 
HETATM   36  C   UNL     1       0.235   6.600  31.835  0.00  0.00     0.026 C 
ENDBRANCH  33  35
ENDBRANCH   4  31
TORSDOF 8
ENDMDL
MODEL 2
REMARK VINA RESULT:    -9.189      0.964      1.628
REMARK INTER + INTRA:         -14.473
REMARK INTER:                 -13.118
REMARK INTRA:                  -1.355
REMARK UNBOUND:                -1.523
REMARK  8 active torsions:
REMARK  status: ('A' for Active; 'I' for Inactive)
REMARK    1  A    between atoms: O_1  and  C_2 
REMARK    2  A    between atoms: C_4  and  O_5 
REMARK    3  A    between atoms: C_6  and  C_10 
REMARK    4  A    between atoms: C_13  and  C_14 
REMARK       I    between atoms: C_14  and  N_16 
REMARK    5  A    between atoms: N_16  and  C_17 
REMARK    6  A    between atoms: C_19  and  C_20 
REMARK    7  A    between atoms: C_23  and  C_26 
REMARK    8  A    between atoms: C_26  and  N_27 
ROOT
HETATM    1  C   UNL     1      -0.482  10.410  25.867  0.00  0.00     0.128 A 
HETATM    2  O   UNL     1      -1.112  10.926  26.966  0.00  0.00    -0.211 OA
HETATM    3  N   UNL     1      -1.043  10.038  28.029  0.00  0.00    -0.121 NA
HETATM    4  C   UNL     1      -0.418   8.947  27.555  0.00  0.00     0.165 A 
HETATM    5  C   UNL     1      -0.046   9.132  26.184  0.00  0.00     0.048 A 
ENDROOT
BRANCH   5   6
HETATM    6  C   UNL     1       0.813   8.298  25.362  0.00  0.00    -0.021 A 
HETATM    7  C   UNL     1       2.173   8.124  25.636  0.00  0.00     0.013 A 
HETATM    8  C   UNL     1       2.958   7.302  24.816  0.00  0.00     0.010 A 
HETATM    9  C   UNL     1       2.393   6.664  23.700  0.00  0.00    -0.033 A 
HETATM   10  C   UNL     1       1.029   6.831  23.440  0.00  0.00     0.010 A 
HETATM   11  C   UNL     1       0.249   7.632  24.268  0.00  0.00     0.013 A 
BRANCH   9  12
HETATM   12  C   UNL     1       3.225   5.860  22.742  0.00  0.00     0.273 C 
BRANCH  12  13
HETATM   13  N   UNL     1       3.207   6.347  21.312  0.00  0.00    -0.063 N 
HETATM   14  H   UNL     1       2.264   6.704  21.119  0.00  0.00     0.280 HD
HETATM   15  C   UNL     1       4.188   7.489  21.067  0.00  0.00     0.261 C 
HETATM   16  C   UNL     1       4.220   7.833  19.576  0.00  0.00     0.195 C 
HETATM   17  O   UNL     1       4.604   6.687  18.811  0.00  0.00    -0.388 OA
HETATM   18  C   UNL     1       3.637   5.641  18.923  0.00  0.00     0.195 C 
HETATM   19  C   UNL     1       3.477   5.175  20.373  0.00  0.00     0.261 C 
ENDBRANCH  12  13
ENDBRANCH   9  12
ENDBRANCH   5   6
BRANCH   1  20
HETATM   20  C   UNL     1      -0.296  11.341  24.736  0.00  0.00     0.035 A 
HETATM   21  C   UNL     1       0.963  11.786  24.297  0.00  0.00     0.081 A 
HETATM   22  C   UNL     1       1.080  12.626  23.182  0.00  0.00     0.074 A 
HETATM   23  C   UNL     1      -0.064  13.037  22.500  0.00  0.00     0.074 A 
HETATM   24  C   UNL     1      -1.330  12.634  22.920  0.00  0.00    -0.028 A 
HETATM   25  C   UNL     1      -1.425  11.784  24.030  0.00  0.00     0.026 A 
HETATM   26  C   UNL     1      -2.565  13.024  22.163  0.00  0.00     0.051 C 
BRANCH  21  27
HETATM   27  O   UNL     1       2.094  11.405  24.963  0.00  0.00    -0.360 OA
HETATM   28  H   UNL     1       2.240  11.986  25.728  0.00  0.00     0.217 HD
ENDBRANCH  21  27
BRANCH  23  29
HETATM   29  O   UNL     1       0.026  13.839  21.399  0.00  0.00    -0.360 OA
HETATM   30  H   UNL     1       0.231  14.749  21.676  0.00  0.00     0.217 HD
ENDBRANCH  23  29
ENDBRANCH   1  20
BRANCH   4  31
HETATM   31  C   UNL     1      -0.113   7.782  28.401  0.00  0.00     0.273 C 
HETATM   32  O   UNL     1      -0.188   6.628  27.984  0.00  0.00    -0.266 OA
HETATM   33  N   UNL     1       0.367   8.076  29.663  0.00  0.00    -0.356 N 
HETATM   34  H   UNL     1       0.416   9.053  29.933  0.00  0.00     0.162 HD
BRANCH  33  35
HETATM   35  C   UNL     1       0.840   7.052  30.574  0.00  0.00     0.118 C 
HETATM   36  C   UNL     1       2.347   6.848  30.500  0.00  0.00     0.026 C 
ENDBRANCH  33  35
ENDBRANCH   4  31
TORSDOF 8
ENDMDL
MODEL 3
REMARK VINA RESULT:    -9.033      1.780      2.485
REMARK INTER + INTRA:         -14.253
REMARK INTER:                 -12.754
REMARK INTRA:                  -1.499
REMARK UNBOUND:                -1.523
REMARK  8 active torsions:
REMARK  status: ('A' for Active; 'I' for Inactive)
REMARK    1  A    between atoms: O_1  and  C_2 
REMARK    2  A    between atoms: C_4  and  O_5 
REMARK    3  A    between atoms: C_6  and  C_10 
REMARK    4  A    between atoms: C_13  and  C_14 
REMARK       I    between atoms: C_14  and  N_16 
REMARK    5  A    between atoms: N_16  and  C_17 
REMARK    6  A    between atoms: C_19  and  C_20 
REMARK    7  A    between atoms: C_23  and  C_26 
REMARK    8  A    between atoms: C_26  and  N_27 
ROOT
HETATM    1  C   UNL     1      -0.919  10.123  26.028  0.00  0.00     0.128 A 
HETATM    2  O   UNL     1      -1.495  10.614  27.167  0.00  0.00    -0.211 OA
HETATM    3  N   UNL     1      -1.180   9.814  28.256  0.00  0.00    -0.121 NA
HETATM    4  C   UNL     1      -0.457   8.794  27.765  0.00  0.00     0.165 A 
HETATM    5  C   UNL     1      -0.267   8.942  26.352  0.00  0.00     0.048 A 
ENDROOT
BRANCH   5   6
HETATM    6  C   UNL     1       0.610   8.186  25.476  0.00  0.00    -0.021 A 
HETATM    7  C   UNL     1       0.165   7.083  24.740  0.00  0.00     0.013 A 
HETATM    8  C   UNL     1       1.050   6.391  23.902  0.00  0.00     0.010 A 
HETATM    9  C   UNL     1       2.395   6.784  23.809  0.00  0.00    -0.033 A 
HETATM   10  C   UNL     1       2.830   7.897  24.537  0.00  0.00     0.010 A 
HETATM   11  C   UNL     1       1.944   8.593  25.353  0.00  0.00     0.013 A 
BRANCH   9  12
HETATM   12  C   UNL     1       3.395   6.005  23.003  0.00  0.00     0.273 C 
BRANCH  12  13
HETATM   13  N   UNL     1       4.556   5.443  23.788  0.00  0.00    -0.063 N 
HETATM   14  H   UNL     1       4.858   6.165  24.452  0.00  0.00     0.280 HD
HETATM   15  C   UNL     1       4.175   4.207  24.598  0.00  0.00     0.261 C 
HETATM   16  C   UNL     1       5.425   3.612  25.251  0.00  0.00     0.195 C 
HETATM   17  O   UNL     1       6.388   3.263  24.252  0.00  0.00    -0.388 OA
HETATM   18  C   UNL     1       6.857   4.421  23.557  0.00  0.00     0.195 C 
HETATM   19  C   UNL     1       5.715   5.148  22.841  0.00  0.00     0.261 C 
ENDBRANCH  12  13
ENDBRANCH   9  12
ENDBRANCH   5   6
BRANCH   1  20
HETATM   20  C   UNL     1      -0.997  10.995  24.840  0.00  0.00     0.035 A 
HETATM   21  C   UNL     1      -2.169  11.176  24.085  0.00  0.00     0.081 A 
HETATM   22  C   UNL     1      -2.196  12.061  23.000  0.00  0.00     0.074 A 
HETATM   23  C   UNL     1      -1.045  12.769  22.654  0.00  0.00     0.074 A 
HETATM   24  C   UNL     1       0.140  12.599  23.365  0.00  0.00    -0.028 A 
HETATM   25  C   UNL     1       0.143  11.718  24.455  0.00  0.00     0.026 A 
HETATM   26  C   UNL     1       1.368  13.395  23.037  0.00  0.00     0.051 C 
BRANCH  21  27
HETATM   27  O   UNL     1      -3.300  10.479  24.401  0.00  0.00    -0.360 OA
HETATM   28  H   UNL     1      -3.557  10.663  25.320  0.00  0.00     0.217 HD
ENDBRANCH  21  27
BRANCH  23  29
HETATM   29  O   UNL     1      -1.053  13.653  21.612  0.00  0.00    -0.360 OA
HETATM   30  H   UNL     1      -1.176  14.555  21.952  0.00  0.00     0.217 HD
ENDBRANCH  23  29
ENDBRANCH   1  20
BRANCH   4  31
HETATM   31  C   UNL     1       0.107   7.741  28.624  0.00  0.00     0.273 C 
HETATM   32  O   UNL     1       0.316   6.601  28.216  0.00  0.00    -0.266 OA
HETATM   33  N   UNL     1       0.485   8.148  29.889  0.00  0.00    -0.356 N 
HETATM   34  H   UNL     1       0.295   9.109  30.151  0.00  0.00     0.162 HD
BRANCH  33  35
HETATM   35  C   UNL     1       1.177   7.272  30.815  0.00  0.00     0.118 C 
HETATM   36  C   UNL     1       0.230   6.552  31.765  0.00  0.00     0.026 C 
ENDBRANCH  33  35
ENDBRANCH   4  31
TORSDOF 8
ENDMDL
MODEL 4
REMARK VINA RESULT:    -8.102      1.992      2.939
REMARK INTER + INTRA:         -12.941
REMARK INTER:                 -11.646
REMARK INTRA:                  -1.295
REMARK UNBOUND:                -1.523
REMARK  8 active torsions:
REMARK  status: ('A' for Active; 'I' for Inactive)
REMARK    1  A    between atoms: O_1  and  C_2 
REMARK    2  A    between atoms: C_4  and  O_5 
REMARK    3  A    between atoms: C_6  and  C_10 
REMARK    4  A    between atoms: C_13  and  C_14 
REMARK       I    between atoms: C_14  and  N_16 
REMARK    5  A    between atoms: N_16  and  C_17 
REMARK    6  A    between atoms: C_19  and  C_20 
REMARK    7  A    between atoms: C_23  and  C_26 
REMARK    8  A    between atoms: C_26  and  N_27 
ROOT
HETATM    1  C   UNL     1      -0.486  10.438  25.907  0.00  0.00     0.128 A 
HETATM    2  O   UNL     1      -1.055  10.988  27.022  0.00  0.00    -0.211 OA
HETATM    3  N   UNL     1      -0.981  10.109  28.092  0.00  0.00    -0.121 NA
HETATM    4  C   UNL     1      -0.416   8.990  27.609  0.00  0.00     0.165 A 
HETATM    5  C   UNL     1      -0.086   9.147  26.223  0.00  0.00     0.048 A 
ENDROOT
BRANCH   5   6
HETATM    6  C   UNL     1       0.710   8.273  25.380  0.00  0.00    -0.021 A 
HETATM    7  C   UNL     1       0.133   7.384  24.468  0.00  0.00     0.013 A 
HETATM    8  C   UNL     1       0.946   6.565  23.671  0.00  0.00     0.010 A 
HETATM    9  C   UNL     1       2.344   6.615  23.795  0.00  0.00    -0.033 A 
HETATM   10  C   UNL     1       2.914   7.517  24.699  0.00  0.00     0.010 A 
HETATM   11  C   UNL     1       2.105   8.342  25.474  0.00  0.00     0.013 A 
BRANCH   9  12
HETATM   12  C   UNL     1       3.241   5.682  23.033  0.00  0.00     0.273 C 
BRANCH  12  13
HETATM   13  N   UNL     1       4.484   5.243  23.770  0.00  0.00    -0.063 N 
HETATM   14  H   UNL     1       4.734   5.990  24.428  0.00  0.00     0.280 HD
HETATM   15  C   UNL     1       4.267   3.970  24.584  0.00  0.00     0.261 C 
HETATM   16  C   UNL     1       5.598   3.508  25.184  0.00  0.00     0.195 C 
HETATM   17  O   UNL     1       6.553   3.267  24.146  0.00  0.00    -0.388 OA
HETATM   18  C   UNL     1       6.870   4.470  23.444  0.00  0.00     0.195 C 
HETATM   19  C   UNL     1       5.631   5.075  22.777  0.00  0.00     0.261 C 
ENDBRANCH  12  13
ENDBRANCH   9  12
ENDBRANCH   5   6
BRANCH   1  20
HETATM   20  C   UNL     1      -0.306  11.349  24.760  0.00  0.00     0.035 A 
HETATM   21  C   UNL     1       0.950  11.809  24.323  0.00  0.00     0.081 A 
HETATM   22  C   UNL     1       1.062  12.628  23.193  0.00  0.00     0.074 A 
HETATM   23  C   UNL     1      -0.083  13.005  22.493  0.00  0.00     0.074 A 
HETATM   24  C   UNL     1      -1.346  12.587  22.909  0.00  0.00    -0.028 A 
HETATM   25  C   UNL     1      -1.436  11.757  24.035  0.00  0.00     0.026 A 
HETATM   26  C   UNL     1      -2.580  12.940  22.133  0.00  0.00     0.051 C 
BRANCH  21  27
HETATM   27  O   UNL     1       2.080  11.461  25.007  0.00  0.00    -0.360 OA
HETATM   28  H   UNL     1       2.643  10.896  24.452  0.00  0.00     0.217 HD
ENDBRANCH  21  27
BRANCH  23  29
HETATM   29  O   UNL     1       0.003  13.787  21.377  0.00  0.00    -0.360 OA
HETATM   30  H   UNL     1      -0.528  14.592  21.503  0.00  0.00     0.217 HD
ENDBRANCH  23  29
ENDBRANCH   1  20
BRANCH   4  31
HETATM   31  C   UNL     1      -0.124   7.823  28.456  0.00  0.00     0.273 C 
HETATM   32  O   UNL     1      -0.373   6.673  28.101  0.00  0.00    -0.266 OA
HETATM   33  N   UNL     1       0.546   8.099  29.633  0.00  0.00    -0.356 N 
HETATM   34  H   UNL     1       0.731   9.072  29.853  0.00  0.00     0.162 HD
BRANCH  33  35
HETATM   35  C   UNL     1       1.026   7.055  30.518  0.00  0.00     0.118 C 
HETATM   36  C   UNL     1      -0.012   6.632  31.548  0.00  0.00     0.026 C 
ENDBRANCH  33  35
ENDBRANCH   4  31
TORSDOF 8
ENDMDL
MODEL 5
REMARK VINA RESULT:    -8.075      1.977      5.703
REMARK INTER + INTRA:         -12.902
REMARK INTER:                 -12.009
REMARK INTRA:                  -0.894
REMARK UNBOUND:                -1.523
REMARK  8 active torsions:
REMARK  status: ('A' for Active; 'I' for Inactive)
REMARK    1  A    between atoms: O_1  and  C_2 
REMARK    2  A    between atoms: C_4  and  O_5 
REMARK    3  A    between atoms: C_6  and  C_10 
REMARK    4  A    between atoms: C_13  and  C_14 
REMARK       I    between atoms: C_14  and  N_16 
REMARK    5  A    between atoms: N_16  and  C_17 
REMARK    6  A    between atoms: C_19  and  C_20 
REMARK    7  A    between atoms: C_23  and  C_26 
REMARK    8  A    between atoms: C_26  and  N_27 
ROOT
HETATM    1  C   UNL     1       0.021  10.036  26.395  0.00  0.00     0.128 A 
HETATM    2  O   UNL     1      -0.947  10.956  26.690  0.00  0.00    -0.211 OA
HETATM    3  N   UNL     1      -1.190  11.775  25.597  0.00  0.00    -0.121 NA
HETATM    4  C   UNL     1      -0.320  11.390  24.649  0.00  0.00     0.165 A 
HETATM    5  C   UNL     1       0.476  10.290  25.109  0.00  0.00     0.048 A 
ENDROOT
BRANCH   5   6
HETATM    6  C   UNL     1       1.380   9.450  24.345  0.00  0.00    -0.021 A 
HETATM    7  C   UNL     1       2.661   9.872  23.974  0.00  0.00     0.013 A 
HETATM    8  C   UNL     1       3.500   9.020  23.242  0.00  0.00     0.010 A 
HETATM    9  C   UNL     1       3.056   7.745  22.856  0.00  0.00    -0.033 A 
HETATM   10  C   UNL     1       1.780   7.324  23.243  0.00  0.00     0.010 A 
HETATM   11  C   UNL     1       0.957   8.165  23.986  0.00  0.00     0.013 A 
BRANCH   9  12
HETATM   12  C   UNL     1       3.887   6.846  21.986  0.00  0.00     0.273 C 
BRANCH  12  13
HETATM   13  N   UNL     1       3.284   6.520  20.640  0.00  0.00    -0.063 N 
HETATM   14  H   UNL     1       2.394   7.026  20.569  0.00  0.00     0.280 HD
HETATM   15  C   UNL     1       4.162   6.973  19.477  0.00  0.00     0.261 C 
HETATM   16  C   UNL     1       3.561   6.485  18.156  0.00  0.00     0.195 C 
HETATM   17  O   UNL     1       3.451   5.058  18.158  0.00  0.00    -0.388 OA
HETATM   18  C   UNL     1       2.537   4.610  19.161  0.00  0.00     0.195 C 
HETATM   19  C   UNL     1       2.993   5.024  20.563  0.00  0.00     0.261 C 
ENDBRANCH  12  13
ENDBRANCH   9  12
ENDBRANCH   5   6
BRANCH   1  20
HETATM   20  C   UNL     1       0.222   8.969  27.395  0.00  0.00     0.035 A 
HETATM   21  C   UNL     1      -0.716   8.658  28.396  0.00  0.00     0.081 A 
HETATM   22  C   UNL     1      -0.495   7.597  29.283  0.00  0.00     0.074 A 
HETATM   23  C   UNL     1       0.673   6.841  29.183  0.00  0.00     0.074 A 
HETATM   24  C   UNL     1       1.634   7.135  28.219  0.00  0.00    -0.028 A 
HETATM   25  C   UNL     1       1.389   8.192  27.333  0.00  0.00     0.026 A 
HETATM   26  C   UNL     1       2.868   6.296  28.067  0.00  0.00     0.051 C 
BRANCH  21  27
HETATM   27  O   UNL     1      -1.858   9.398  28.516  0.00  0.00    -0.360 OA
HETATM   28  H   UNL     1      -2.216   9.310  29.416  0.00  0.00     0.217 HD
ENDBRANCH  21  27
BRANCH  23  29
HETATM   29  O   UNL     1       0.901   5.790  30.024  0.00  0.00    -0.360 OA
HETATM   30  H   UNL     1       1.491   6.071  30.744  0.00  0.00     0.217 HD
ENDBRANCH  23  29
ENDBRANCH   1  20
BRANCH   4  31
HETATM   31  C   UNL     1      -0.292  11.998  23.310  0.00  0.00     0.273 C 
HETATM   32  O   UNL     1       0.751  12.141  22.674  0.00  0.00    -0.266 OA
HETATM   33  N   UNL     1      -1.527  12.300  22.770  0.00  0.00    -0.356 N 
HETATM   34  H   UNL     1      -2.345  12.141  23.348  0.00  0.00     0.162 HD
BRANCH  33  35
HETATM   35  C   UNL     1      -1.687  12.781  21.411  0.00  0.00     0.118 C 
HETATM   36  C   UNL     1      -2.882  13.711  21.252  0.00  0.00     0.026 C 
ENDBRANCH  33  35
ENDBRANCH   4  31
TORSDOF 8
ENDMDL
MODEL 6
REMARK VINA RESULT:    -8.014      1.947      5.945
REMARK INTER + INTRA:         -12.817
REMARK INTER:                 -11.737
REMARK INTRA:                  -1.079
REMARK UNBOUND:                -1.523
REMARK  8 active torsions:
REMARK  status: ('A' for Active; 'I' for Inactive)
REMARK    1  A    between atoms: O_1  and  C_2 
REMARK    2  A    between atoms: C_4  and  O_5 
REMARK    3  A    between atoms: C_6  and  C_10 
REMARK    4  A    between atoms: C_13  and  C_14 
REMARK       I    between atoms: C_14  and  N_16 
REMARK    5  A    between atoms: N_16  and  C_17 
REMARK    6  A    between atoms: C_19  and  C_20 
REMARK    7  A    between atoms: C_23  and  C_26 
REMARK    8  A    between atoms: C_26  and  N_27 
ROOT
HETATM    1  C   UNL     1       0.550   8.514  27.380  0.00  0.00     0.128 A 
HETATM    2  O   UNL     1      -0.448   9.178  28.038  0.00  0.00    -0.211 OA
HETATM    3  N   UNL     1      -1.134  10.013  27.168  0.00  0.00    -0.121 NA
HETATM    4  C   UNL     1      -0.510   9.902  25.984  0.00  0.00     0.165 A 
HETATM    5  C   UNL     1       0.571   8.964  26.068  0.00  0.00     0.048 A 
ENDROOT
BRANCH   5   6
HETATM    6  C   UNL     1       1.363   8.401  24.988  0.00  0.00    -0.021 A 
HETATM    7  C   UNL     1       0.970   7.255  24.290  0.00  0.00     0.013 A 
HETATM    8  C   UNL     1       1.766   6.755  23.250  0.00  0.00     0.010 A 
HETATM    9  C   UNL     1       2.975   7.386  22.914  0.00  0.00    -0.033 A 
HETATM   10  C   UNL     1       3.354   8.540  23.607  0.00  0.00     0.010 A 
HETATM   11  C   UNL     1       2.551   9.045  24.625  0.00  0.00     0.013 A 
BRANCH   9  12
HETATM   12  C   UNL     1       3.903   6.821  21.877  0.00  0.00     0.273 C 
BRANCH  12  13
HETATM   13  N   UNL     1       3.254   6.467  20.560  0.00  0.00    -0.063 N 
HETATM   14  H   UNL     1       2.352   6.956  20.518  0.00  0.00     0.280 HD
HETATM   15  C   UNL     1       4.077   6.922  19.358  0.00  0.00     0.261 C 
HETATM   16  C   UNL     1       3.435   6.408  18.067  0.00  0.00     0.195 C 
HETATM   17  O   UNL     1       3.351   4.979  18.090  0.00  0.00    -0.388 OA
HETATM   18  C   UNL     1       2.485   4.527  19.132  0.00  0.00     0.195 C 
HETATM   19  C   UNL     1       2.987   4.965  20.511  0.00  0.00     0.261 C 
ENDBRANCH  12  13
ENDBRANCH   9  12
ENDBRANCH   5   6
BRANCH   1  20
HETATM   20  C   UNL     1       1.215   7.437  28.139  0.00  0.00     0.035 A 
HETATM   21  C   UNL     1       1.087   7.275  29.530  0.00  0.00     0.081 A 
HETATM   22  C   UNL     1       1.697   6.199  30.188  0.00  0.00     0.074 A 
HETATM   23  C   UNL     1       2.450   5.279  29.460  0.00  0.00     0.074 A 
HETATM   24  C   UNL     1       2.617   5.420  28.084  0.00  0.00    -0.028 A 
HETATM   25  C   UNL     1       1.988   6.495  27.443  0.00  0.00     0.026 A 
HETATM   26  C   UNL     1       3.379   4.406  27.283  0.00  0.00     0.051 C 
BRANCH  21  27
HETATM   27  O   UNL     1       0.365   8.176  30.260  0.00  0.00    -0.360 OA
HETATM   28  H   UNL     1       0.849   8.411  31.069  0.00  0.00     0.217 HD
ENDBRANCH  21  27
BRANCH  23  29
HETATM   29  O   UNL     1       3.038   4.211  30.076  0.00  0.00    -0.360 OA
HETATM   30  H   UNL     1       3.515   4.515  30.868  0.00  0.00     0.217 HD
ENDBRANCH  23  29
ENDBRANCH   1  20
BRANCH   4  31
HETATM   31  C   UNL     1      -0.970  10.609  24.778  0.00  0.00     0.273 C 
HETATM   32  O   UNL     1      -2.103  10.466  24.324  0.00  0.00    -0.266 OA
HETATM   33  N   UNL     1      -0.079  11.525  24.253  0.00  0.00    -0.356 N 
HETATM   34  H   UNL     1       0.834  11.599  24.690  0.00  0.00     0.162 HD
BRANCH  33  35
HETATM   35  C   UNL     1      -0.422  12.401  23.149  0.00  0.00     0.118 C 
HETATM   36  C   UNL     1       0.727  13.312  22.741  0.00  0.00     0.026 C 
ENDBRANCH  33  35
ENDBRANCH   4  31
TORSDOF 8
ENDMDL
MODEL 7
REMARK VINA RESULT:    -7.973      1.982      6.216
REMARK INTER + INTRA:         -12.758
REMARK INTER:                 -11.588
REMARK INTRA:                  -1.170
REMARK UNBOUND:                -1.523
REMARK  8 active torsions:
REMARK  status: ('A' for Active; 'I' for Inactive)
REMARK    1  A    between atoms: O_1  and  C_2 
REMARK    2  A    between atoms: C_4  and  O_5 
REMARK    3  A    between atoms: C_6  and  C_10 
REMARK    4  A    between atoms: C_13  and  C_14 
REMARK       I    between atoms: C_14  and  N_16 
REMARK    5  A    between atoms: N_16  and  C_17 
REMARK    6  A    between atoms: C_19  and  C_20 
REMARK    7  A    between atoms: C_23  and  C_26 
REMARK    8  A    between atoms: C_26  and  N_27 
ROOT
HETATM    1  C   UNL     1       0.103   9.027  27.637  0.00  0.00     0.128 A 
HETATM    2  O   UNL     1      -0.862   9.746  28.287  0.00  0.00    -0.211 OA
HETATM    3  N   UNL     1      -1.611  10.485  27.383  0.00  0.00    -0.121 NA
HETATM    4  C   UNL     1      -1.059  10.261  26.179  0.00  0.00     0.165 A 
HETATM    5  C   UNL     1       0.037   9.344  26.288  0.00  0.00     0.048 A 
ENDROOT
BRANCH   5   6
HETATM    6  C   UNL     1       0.769   8.683  25.222  0.00  0.00    -0.021 A 
HETATM    7  C   UNL     1       0.394   7.432  24.720  0.00  0.00     0.013 A 
HETATM    8  C   UNL     1       1.129   6.839  23.684  0.00  0.00     0.010 A 
HETATM    9  C   UNL     1       2.260   7.482  23.157  0.00  0.00    -0.033 A 
HETATM   10  C   UNL     1       2.620   8.739  23.653  0.00  0.00     0.010 A 
HETATM   11  C   UNL     1       1.876   9.334  24.667  0.00  0.00     0.013 A 
BRANCH   9  12
HETATM   12  C   UNL     1       3.130   6.832  22.120  0.00  0.00     0.273 C 
BRANCH  12  13
HETATM   13  N   UNL     1       3.648   5.460  22.484  0.00  0.00    -0.063 N 
HETATM   14  H   UNL     1       2.857   4.920  22.854  0.00  0.00     0.280 HD
HETATM   15  C   UNL     1       4.199   4.700  21.281  0.00  0.00     0.261 C 
HETATM   16  C   UNL     1       4.832   3.386  21.746  0.00  0.00     0.195 C 
HETATM   17  O   UNL     1       5.882   3.646  22.683  0.00  0.00    -0.388 OA
HETATM   18  C   UNL     1       5.375   4.247  23.876  0.00  0.00     0.195 C 
HETATM   19  C   UNL     1       4.696   5.589  23.586  0.00  0.00     0.261 C 
ENDBRANCH  12  13
ENDBRANCH   9  12
ENDBRANCH   5   6
BRANCH   1  20
HETATM   20  C   UNL     1       0.827   8.035  28.455  0.00  0.00     0.035 A 
HETATM   21  C   UNL     1       2.223   7.870  28.420  0.00  0.00     0.081 A 
HETATM   22  C   UNL     1       2.860   6.950  29.261  0.00  0.00     0.074 A 
HETATM   23  C   UNL     1       2.105   6.177  30.142  0.00  0.00     0.074 A 
HETATM   24  C   UNL     1       0.718   6.297  30.189  0.00  0.00    -0.028 A 
HETATM   25  C   UNL     1       0.100   7.232  29.348  0.00  0.00     0.026 A 
HETATM   26  C   UNL     1      -0.101   5.511  31.171  0.00  0.00     0.051 C 
BRANCH  21  27
HETATM   27  O   UNL     1       2.976   8.609  27.551  0.00  0.00    -0.360 OA
HETATM   28  H   UNL     1       3.879   8.709  27.898  0.00  0.00     0.217 HD
ENDBRANCH  21  27
BRANCH  23  29
HETATM   29  O   UNL     1       2.705   5.288  30.986  0.00  0.00    -0.360 OA
HETATM   30  H   UNL     1       2.245   4.433  30.939  0.00  0.00     0.217 HD
ENDBRANCH  23  29
ENDBRANCH   1  20
BRANCH   4  31
HETATM   31  C   UNL     1      -1.602  10.842  24.941  0.00  0.00     0.273 C 
HETATM   32  O   UNL     1      -2.747  10.616  24.555  0.00  0.00    -0.266 OA
HETATM   33  N   UNL     1      -0.775  11.743  24.298  0.00  0.00    -0.356 N 
HETATM   34  H   UNL     1       0.151  11.891  24.683  0.00  0.00     0.162 HD
BRANCH  33  35
HETATM   35  C   UNL     1      -1.204  12.505  23.141  0.00  0.00     0.118 C 
HETATM   36  C   UNL     1      -0.039  13.003  22.298  0.00  0.00     0.026 C 
ENDBRANCH  33  35
ENDBRANCH   4  31
TORSDOF 8
ENDMDL
MODEL 8
REMARK VINA RESULT:    -7.817      2.736      8.184
REMARK INTER + INTRA:         -12.540
REMARK INTER:                 -10.840
REMARK INTRA:                  -1.699
REMARK UNBOUND:                -1.523
REMARK  8 active torsions:
REMARK  status: ('A' for Active; 'I' for Inactive)
REMARK    1  A    between atoms: O_1  and  C_2 
REMARK    2  A    between atoms: C_4  and  O_5 
REMARK    3  A    between atoms: C_6  and  C_10 
REMARK    4  A    between atoms: C_13  and  C_14 
REMARK       I    between atoms: C_14  and  N_16 
REMARK    5  A    between atoms: N_16  and  C_17 
REMARK    6  A    between atoms: C_19  and  C_20 
REMARK    7  A    between atoms: C_23  and  C_26 
REMARK    8  A    between atoms: C_26  and  N_27 
ROOT
HETATM    1  C   UNL     1       3.022   4.919  27.187  0.00  0.00     0.128 A 
HETATM    2  O   UNL     1       3.832   3.893  26.786  0.00  0.00    -0.211 OA
HETATM    3  N   UNL     1       3.908   3.844  25.402  0.00  0.00    -0.121 NA
HETATM    4  C   UNL     1       3.090   4.812  24.955  0.00  0.00     0.165 A 
HETATM    5  C   UNL     1       2.499   5.521  26.052  0.00  0.00     0.048 A 
ENDROOT
BRANCH   5   6
HETATM    6  C   UNL     1       1.727   6.750  26.019  0.00  0.00    -0.021 A 
HETATM    7  C   UNL     1       0.345   6.761  25.807  0.00  0.00     0.013 A 
HETATM    8  C   UNL     1      -0.357   7.974  25.792  0.00  0.00     0.010 A 
HETATM    9  C   UNL     1       0.323   9.190  25.969  0.00  0.00    -0.033 A 
HETATM   10  C   UNL     1       1.703   9.171  26.195  0.00  0.00     0.010 A 
HETATM   11  C   UNL     1       2.393   7.964  26.229  0.00  0.00     0.013 A 
BRANCH   9  12
HETATM   12  C   UNL     1      -0.379  10.514  25.857  0.00  0.00     0.273 C 
BRANCH  12  13
HETATM   13  N   UNL     1      -0.633  10.989  24.446  0.00  0.00    -0.063 N 
HETATM   14  H   UNL     1      -0.521  10.180  23.823  0.00  0.00     0.280 HD
HETATM   15  C   UNL     1      -2.048  11.525  24.251  0.00  0.00     0.261 C 
HETATM   16  C   UNL     1      -2.187  12.117  22.846  0.00  0.00     0.195 C 
HETATM   17  O   UNL     1      -1.236  13.168  22.654  0.00  0.00    -0.388 OA
HETATM   18  C   UNL     1       0.103  12.671  22.708  0.00  0.00     0.195 C 
HETATM   19  C   UNL     1       0.413  12.034  24.065  0.00  0.00     0.261 C 
ENDBRANCH  12  13
ENDBRANCH   9  12
ENDBRANCH   5   6
BRANCH   1  20
HETATM   20  C   UNL     1       3.027   5.215  28.633  0.00  0.00     0.035 A 
HETATM   21  C   UNL     1       4.169   5.102  29.445  0.00  0.00     0.081 A 
HETATM   22  C   UNL     1       4.126   5.450  30.801  0.00  0.00     0.074 A 
HETATM   23  C   UNL     1       2.934   5.907  31.361  0.00  0.00     0.074 A 
HETATM   24  C   UNL     1       1.776   6.011  30.593  0.00  0.00    -0.028 A 
HETATM   25  C   UNL     1       1.843   5.670  29.236  0.00  0.00     0.026 A 
HETATM   26  C   UNL     1       0.502   6.554  31.171  0.00  0.00     0.051 C 
BRANCH  21  27
HETATM   27  O   UNL     1       5.341   4.641  28.915  0.00  0.00    -0.360 OA
HETATM   28  H   UNL     1       5.273   4.598  27.946  0.00  0.00     0.217 HD
ENDBRANCH  21  27
BRANCH  23  29
HETATM   29  O   UNL     1       2.872   6.272  32.676  0.00  0.00    -0.360 OA
HETATM   30  H   UNL     1       3.392   7.082  32.814  0.00  0.00     0.217 HD
ENDBRANCH  23  29
ENDBRANCH   1  20
BRANCH   4  31
HETATM   31  C   UNL     1       2.927   5.109  23.524  0.00  0.00     0.273 C 
HETATM   32  O   UNL     1       1.873   4.905  22.925  0.00  0.00    -0.266 OA
HETATM   33  N   UNL     1       4.004   5.733  22.923  0.00  0.00    -0.356 N 
HETATM   34  H   UNL     1       4.836   5.882  23.484  0.00  0.00     0.162 HD
BRANCH  33  35
HETATM   35  C   UNL     1       3.961   6.214  21.555  0.00  0.00     0.118 C 
HETATM   36  C   UNL     1       4.160   7.720  21.454  0.00  0.00     0.026 C 
ENDBRANCH  33  35
ENDBRANCH   4  31
TORSDOF 8
ENDMDL
MODEL 9
REMARK VINA RESULT:    -7.738      2.752      7.083
REMARK INTER + INTRA:         -12.428
REMARK INTER:                 -10.905
REMARK INTRA:                  -1.523
REMARK UNBOUND:                -1.523
REMARK  8 active torsions:
REMARK  status: ('A' for Active; 'I' for Inactive)
REMARK    1  A    between atoms: O_1  and  C_2 
REMARK    2  A    between atoms: C_4  and  O_5 
REMARK    3  A    between atoms: C_6  and  C_10 
REMARK    4  A    between atoms: C_13  and  C_14 
REMARK       I    between atoms: C_14  and  N_16 
REMARK    5  A    between atoms: N_16  and  C_17 
REMARK    6  A    between atoms: C_19  and  C_20 
REMARK    7  A    between atoms: C_23  and  C_26 
REMARK    8  A    between atoms: C_26  and  N_27 
ROOT
HETATM    1  C   UNL     1       2.714   8.826  23.846  0.00  0.00     0.128 A 
HETATM    2  O   UNL     1       3.244   8.485  22.632  0.00  0.00    -0.211 OA
HETATM    3  N   UNL     1       3.629   7.153  22.625  0.00  0.00    -0.121 NA
HETATM    4  C   UNL     1       3.388   6.694  23.864  0.00  0.00     0.165 A 
HETATM    5  C   UNL     1       2.810   7.721  24.680  0.00  0.00     0.048 A 
ENDROOT
BRANCH   5   6
HETATM    6  C   UNL     1       2.217   7.597  26.000  0.00  0.00    -0.021 A 
HETATM    7  C   UNL     1       2.706   8.296  27.108  0.00  0.00     0.013 A 
HETATM    8  C   UNL     1       2.093   8.148  28.361  0.00  0.00     0.010 A 
HETATM    9  C   UNL     1       0.999   7.283  28.519  0.00  0.00    -0.033 A 
HETATM   10  C   UNL     1       0.507   6.598  27.403  0.00  0.00     0.010 A 
HETATM   11  C   UNL     1       1.104   6.763  26.157  0.00  0.00     0.013 A 
BRANCH   9  12
HETATM   12  C   UNL     1       0.383   7.021  29.864  0.00  0.00     0.273 C 
BRANCH  12  13
HETATM   13  N   UNL     1       0.729   5.686  30.480  0.00  0.00    -0.063 N 
HETATM   14  H   UNL     1       0.371   4.955  29.853  0.00  0.00     0.280 HD
HETATM   15  C   UNL     1       2.234   5.473  30.618  0.00  0.00     0.261 C 
HETATM   16  C   UNL     1       2.504   4.170  31.375  0.00  0.00     0.195 C 
HETATM   17  O   UNL     1       1.895   4.214  32.669  0.00  0.00    -0.388 OA
HETATM   18  C   UNL     1       0.471   4.288  32.570  0.00  0.00     0.195 C 
HETATM   19  C   UNL     1       0.024   5.549  31.826  0.00  0.00     0.261 C 
ENDBRANCH  12  13
ENDBRANCH   9  12
ENDBRANCH   5   6
BRANCH   1  20
HETATM   20  C   UNL     1       2.069  10.151  23.918  0.00  0.00     0.035 A 
HETATM   21  C   UNL     1       2.726  11.352  23.598  0.00  0.00     0.081 A 
HETATM   22  C   UNL     1       2.045  12.576  23.631  0.00  0.00     0.074 A 
HETATM   23  C   UNL     1       0.700  12.611  23.995  0.00  0.00     0.074 A 
HETATM   24  C   UNL     1       0.022  11.444  24.340  0.00  0.00    -0.028 A 
HETATM   25  C   UNL     1       0.718  10.228  24.289  0.00  0.00     0.026 A 
HETATM   26  C   UNL     1      -1.439  11.461  24.681  0.00  0.00     0.051 C 
BRANCH  21  27
HETATM   27  O   UNL     1       4.049  11.337  23.254  0.00  0.00    -0.360 OA
HETATM   28  H   UNL     1       4.163  11.703  22.360  0.00  0.00     0.217 HD
ENDBRANCH  21  27
BRANCH  23  29
HETATM   29  O   UNL     1       0.010  13.789  24.016  0.00  0.00    -0.360 OA
HETATM   30  H   UNL     1      -0.731  13.743  23.387  0.00  0.00     0.217 HD
ENDBRANCH  23  29
ENDBRANCH   1  20
BRANCH   4  31
HETATM   31  C   UNL     1       3.628   5.294  24.248  0.00  0.00     0.273 C 
HETATM   32  O   UNL     1       2.772   4.422  24.123  0.00  0.00    -0.266 OA
HETATM   33  N   UNL     1       4.915   5.006  24.659  0.00  0.00    -0.356 N 
HETATM   34  H   UNL     1       5.573   5.776  24.724  0.00  0.00     0.162 HD
BRANCH  33  35
HETATM   35  C   UNL     1       5.357   3.654  24.947  0.00  0.00     0.118 C 
HETATM   36  C   UNL     1       6.854   3.567  25.205  0.00  0.00     0.026 C 
ENDBRANCH  33  35
ENDBRANCH   4  31
TORSDOF 8
ENDMDL
