REMARK  8 active torsions:
REMARK  status: ('A' for Active; 'I' for Inactive)
REMARK    1  A    between atoms: O_1  and  C_2 
REMARK    2  A    between atoms: C_4  and  O_5 
REMARK    3  A    between atoms: C_6  and  C_10 
REMARK    4  A    between atoms: C_13  and  C_14 
REMARK       I    between atoms: C_14  and  N_16 
REMARK    5  A    between atoms: N_16  and  C_17 
REMARK    6  A    between atoms: C_19  and  C_20 
REMARK    7  A    between atoms: C_23  and  C_26 
REMARK    8  A    between atoms: C_26  and  N_27 
ROOT
HETATM    1  C   UNL     1       6.760  -0.004  -0.486  0.00  0.00     0.128 A 
HETATM    2  O   UNL     1       7.566   1.083  -0.685  0.00  0.00    -0.211 OA
HETATM    3  N   UNL     1       8.841   0.683  -1.057  0.00  0.00    -0.121 NA
HETATM    4  C   UNL     1       8.828  -0.660  -1.026  0.00  0.00     0.165 A 
HETATM    5  C   UNL     1       7.529  -1.145  -0.664  0.00  0.00     0.048 A 
ENDROOT
BRANCH   5   6
HETATM    6  C   UNL     1       7.030  -2.508  -0.710  0.00  0.00    -0.021 A 
HETATM    7  C   UNL     1       6.266  -3.061   0.323  0.00  0.00     0.013 A 
HETATM    8  C   UNL     1       5.801  -4.380   0.228  0.00  0.00     0.010 A 
HETATM    9  C   UNL     1       6.115  -5.165  -0.893  0.00  0.00    -0.033 A 
HETATM   10  C   UNL     1       6.867  -4.601  -1.929  0.00  0.00     0.010 A 
HETATM   11  C   UNL     1       7.310  -3.285  -1.840  0.00  0.00     0.013 A 
BRANCH   9  12
HETATM   12  C   UNL     1       5.722  -6.612  -0.983  0.00  0.00     0.273 C 
BRANCH  12  13
HETATM   13  N   UNL     1       4.237  -6.869  -1.084  0.00  0.00    -0.063 N 
HETATM   14  H   UNL     1       3.795  -6.455  -0.255  0.00  0.00     0.280 HD
HETATM   15  C   UNL     1       3.609  -6.216  -2.312  0.00  0.00     0.261 C 
HETATM   16  C   UNL     1       2.141  -6.635  -2.426  0.00  0.00     0.195 C 
HETATM   17  O   UNL     1       2.038  -8.059  -2.523  0.00  0.00    -0.388 OA
HETATM   18  C   UNL     1       2.506  -8.695  -1.332  0.00  0.00     0.195 C 
HETATM   19  C   UNL     1       3.979  -8.373  -1.064  0.00  0.00     0.261 C 
ENDBRANCH  12  13
ENDBRANCH   9  12
ENDBRANCH   5   6
BRANCH   1  20
HETATM   20  C   UNL     1       5.325   0.285  -0.297  0.00  0.00     0.035 A 
HETATM   21  C   UNL     1       4.845   1.388   0.431  0.00  0.00     0.081 A 
HETATM   22  C   UNL     1       3.471   1.642   0.529  0.00  0.00     0.074 A 
HETATM   23  C   UNL     1       2.562   0.788  -0.094  0.00  0.00     0.074 A 
HETATM   24  C   UNL     1       3.000  -0.327  -0.805  0.00  0.00    -0.028 A 
HETATM   25  C   UNL     1       4.379  -0.557  -0.902  0.00  0.00     0.026 A 
HETATM   26  C   UNL     1       2.035  -1.222  -1.525  0.00  0.00     0.051 C 
BRANCH  21  27
HETATM   27  O   UNL     1       5.722   2.226   1.060  0.00  0.00    -0.360 OA
HETATM   28  H   UNL     1       5.248   2.998   1.412  0.00  0.00     0.217 HD
ENDBRANCH  21  27
BRANCH  23  29
HETATM   29  O   UNL     1       1.219   1.026  -0.029  0.00  0.00    -0.360 OA
HETATM   30  H   UNL     1       1.061   1.884   0.401  0.00  0.00     0.217 HD
ENDBRANCH  23  29
ENDBRANCH   1  20
BRANCH   4  31
HETATM   31  C   UNL     1       9.997  -1.470  -1.403  0.00  0.00     0.273 C 
HETATM   32  O   UNL     1      10.180  -2.604  -0.966  0.00  0.00    -0.266 OA
HETATM   33  N   UNL     1      10.819  -0.912  -2.363  0.00  0.00    -0.356 N 
HETATM   34  H   UNL     1      10.597   0.023  -2.688  0.00  0.00     0.162 HD
BRANCH  33  35
HETATM   35  C   UNL     1      11.938  -1.630  -2.943  0.00  0.00     0.118 C 
HETATM   36  C   UNL     1      11.531  -2.500  -4.124  0.00  0.00     0.026 C 
ENDBRANCH  33  35
ENDBRANCH   4  31
TORSDOF 8
