MODEL 1
REMARK VINA RESULT:    -9.128      0.000      0.000
REMARK INTER + INTRA:         -14.558
REMARK INTER:                 -13.107
REMARK INTRA:                  -1.451
REMARK UNBOUND:                -1.695
REMARK  8 active torsions:
REMARK  status: ('A' for Active; 'I' for Inactive)
REMARK    1  A    between atoms: O_2  and  C_3 
REMARK    2  A    between atoms: C_6  and  C_7 
REMARK    3  A    between atoms: C_7  and  N_8 
REMARK       I    between atoms: N_8  and  C_10 
REMARK    4  A    between atoms: C_10  and  C_12 
REMARK    5  A    between atoms: C_14  and  C_15 
REMARK    6  A    between atoms: N_21  and  C_22 
REMARK    7  A    between atoms: C_29  and  O_30 
REMARK    8  A    between atoms: C_32  and  O_33 
ROOT
HETATM    1  C   UNL     1       3.315   8.426  24.234  0.00  0.00     0.066 C 
HETATM    2  C   UNL     1       3.710   8.239  22.888  0.00  0.00     0.038 C 
HETATM    3  C   UNL     1       4.376   7.075  22.484  0.00  0.00     0.046 C 
HETATM    4  C   UNL     1       4.450   6.001  23.380  0.00  0.00     0.082 C 
HETATM    5  C   UNL     1       4.153   6.180  24.720  0.00  0.00     0.075 C 
HETATM    6  C   UNL     1       3.685   7.420  25.151  0.00  0.00     0.084 C 
ENDROOT
BRANCH   3   7
HETATM    7  C   UNL     1       5.010   6.923  21.151  0.00  0.00     0.172 A 
HETATM    8  N   UNL     1       6.272   7.246  20.994  0.00  0.00    -0.151 NA
HETATM    9  N   UNL     1       6.512   7.047  19.668  0.00  0.00    -0.226 N 
HETATM   10  H   UNL     1       7.364   7.343  19.215  0.00  0.00     0.194 HD
HETATM   11  C   UNL     1       5.351   6.674  19.004  0.00  0.00     0.349 A 
HETATM   12  O   UNL     1       5.253   6.618  17.790  0.00  0.00    -0.245 OA
HETATM   13  N   UNL     1       4.394   6.505  19.992  0.00  0.00    -0.244 N 
BRANCH  13  14
HETATM   14  C   UNL     1       3.041   6.190  19.711  0.00  0.00     0.051 A 
HETATM   15  C   UNL     1       2.473   5.007  20.215  0.00  0.00     0.031 A 
HETATM   16  C   UNL     1       1.163   4.634  19.883  0.00  0.00     0.002 A 
HETATM   17  C   UNL     1       0.417   5.414  19.007  0.00  0.00     0.001 A 
HETATM   18  C   UNL     1       0.943   6.613  18.541  0.00  0.00     0.009 A 
HETATM   19  C   UNL     1       2.230   7.040  18.919  0.00  0.00    -0.035 A 
HETATM   20  C   UNL     1       2.626   8.432  18.501  0.00  0.00     0.050 C 
ENDBRANCH  13  14
ENDBRANCH   3   7
BRANCH   4  21
HETATM   21  O   UNL     1       4.805   4.733  23.006  0.00  0.00    -0.360 OA
HETATM   22  H   UNL     1       4.116   4.113  23.334  0.00  0.00     0.217 HD
ENDBRANCH   4  21
BRANCH   1  23
HETATM   23  C   UNL     1       2.400   9.514  24.715  0.00  0.00     0.256 C 
HETATM   24  N   UNL     1       1.048   9.317  25.018  0.00  0.00    -0.348 N 
HETATM   25  C   UNL     1       0.315   8.073  24.941  0.00  0.00     0.153 C 
HETATM   26  O   UNL     1       2.916  10.615  24.918  0.00  0.00    -0.267 OA
BRANCH  24  27
HETATM   27  C   UNL     1       0.342  10.437  25.642  0.00  0.00     0.164 C 
BRANCH  27  28
HETATM   28  C   UNL     1      -0.590  11.185  24.711  0.00  0.00    -0.040 A 
HETATM   29  C   UNL     1      -0.104  12.086  23.755  0.00  0.00     0.011 A 
HETATM   30  C   UNL     1      -0.969  12.666  22.820  0.00  0.00     0.037 A 
HETATM   31  C   UNL     1      -2.325  12.336  22.812  0.00  0.00     0.068 A 
HETATM   32  C   UNL     1      -2.829  11.499  23.805  0.00  0.00     0.037 A 
HETATM   33  C   UNL     1      -1.968  10.936  24.753  0.00  0.00     0.011 A 
BRANCH  31  34
HETATM   34  O   UNL     1      -3.074  12.907  21.819  0.00  0.00    -0.356 OA
HETATM   35  C   UNL     1      -2.340  13.271  20.652  0.00  0.00     0.210 C 
ENDBRANCH  31  34
ENDBRANCH  27  28
ENDBRANCH  24  27
ENDBRANCH   1  23
BRANCH   6  36
HETATM   36  O   UNL     1       3.617   7.643  26.504  0.00  0.00    -0.360 OA
HETATM   37  H   UNL     1       3.395   6.817  26.966  0.00  0.00     0.217 HD
ENDBRANCH   6  36
TORSDOF 8
ENDMDL
MODEL 2
REMARK VINA RESULT:    -8.791      0.862      1.494
REMARK INTER + INTRA:         -14.084
REMARK INTER:                 -12.282
REMARK INTRA:                  -1.802
REMARK UNBOUND:                -1.695
REMARK  8 active torsions:
REMARK  status: ('A' for Active; 'I' for Inactive)
REMARK    1  A    between atoms: O_2  and  C_3 
REMARK    2  A    between atoms: C_6  and  C_7 
REMARK    3  A    between atoms: C_7  and  N_8 
REMARK       I    between atoms: N_8  and  C_10 
REMARK    4  A    between atoms: C_10  and  C_12 
REMARK    5  A    between atoms: C_14  and  C_15 
REMARK    6  A    between atoms: N_21  and  C_22 
REMARK    7  A    between atoms: C_29  and  O_30 
REMARK    8  A    between atoms: C_32  and  O_33 
ROOT
HETATM    1  C   UNL     1       3.550   8.258  24.210  0.00  0.00     0.066 C 
HETATM    2  C   UNL     1       3.791   8.123  22.821  0.00  0.00     0.038 C 
HETATM    3  C   UNL     1       4.543   7.056  22.316  0.00  0.00     0.046 C 
HETATM    4  C   UNL     1       4.868   5.999  23.177  0.00  0.00     0.082 C 
HETATM    5  C   UNL     1       4.723   6.137  24.547  0.00  0.00     0.075 C 
HETATM    6  C   UNL     1       4.160   7.307  25.055  0.00  0.00     0.084 C 
ENDROOT
BRANCH   3   7
HETATM    7  C   UNL     1       5.016   6.988  20.912  0.00  0.00     0.172 A 
HETATM    8  N   UNL     1       6.010   7.752  20.526  0.00  0.00    -0.151 NA
HETATM    9  N   UNL     1       6.146   7.489  19.196  0.00  0.00    -0.226 N 
HETATM   10  H   UNL     1       6.743   8.030  18.588  0.00  0.00     0.194 HD
HETATM   11  C   UNL     1       5.161   6.611  18.761  0.00  0.00     0.349 A 
HETATM   12  O   UNL     1       4.947   6.361  17.588  0.00  0.00    -0.245 OA
HETATM   13  N   UNL     1       4.483   6.215  19.903  0.00  0.00    -0.244 N 
BRANCH  13  14
HETATM   14  C   UNL     1       3.349   5.365  19.873  0.00  0.00     0.051 A 
HETATM   15  C   UNL     1       2.057   5.914  19.813  0.00  0.00     0.031 A 
HETATM   16  C   UNL     1       0.920   5.097  19.865  0.00  0.00     0.002 A 
HETATM   17  C   UNL     1       1.055   3.723  20.022  0.00  0.00     0.001 A 
HETATM   18  C   UNL     1       2.325   3.157  20.031  0.00  0.00     0.009 A 
HETATM   19  C   UNL     1       3.479   3.954  19.909  0.00  0.00    -0.035 A 
HETATM   20  C   UNL     1       4.787   3.224  19.750  0.00  0.00     0.050 C 
ENDBRANCH  13  14
ENDBRANCH   3   7
BRANCH   4  21
HETATM   21  O   UNL     1       5.331   4.788  22.740  0.00  0.00    -0.360 OA
HETATM   22  H   UNL     1       5.642   4.896  21.813  0.00  0.00     0.217 HD
ENDBRANCH   4  21
BRANCH   1  23
HETATM   23  C   UNL     1       2.573   9.218  24.821  0.00  0.00     0.256 C 
HETATM   24  N   UNL     1       1.251   8.887  25.139  0.00  0.00    -0.348 N 
HETATM   25  C   UNL     1       0.612   7.602  24.959  0.00  0.00     0.153 C 
HETATM   26  O   UNL     1       3.010  10.331  25.119  0.00  0.00    -0.267 OA
BRANCH  24  27
HETATM   27  C   UNL     1       0.484   9.881  25.891  0.00  0.00     0.164 C 
BRANCH  27  28
HETATM   28  C   UNL     1      -0.499  10.674  25.055  0.00  0.00    -0.040 A 
HETATM   29  C   UNL     1      -0.071  11.668  24.165  0.00  0.00     0.011 A 
HETATM   30  C   UNL     1      -0.982  12.296  23.309  0.00  0.00     0.037 A 
HETATM   31  C   UNL     1      -2.328  11.925  23.313  0.00  0.00     0.068 A 
HETATM   32  C   UNL     1      -2.774  10.991  24.246  0.00  0.00     0.037 A 
HETATM   33  C   UNL     1      -1.867  10.379  25.117  0.00  0.00     0.011 A 
BRANCH  31  34
HETATM   34  O   UNL     1      -3.125  12.552  22.394  0.00  0.00    -0.356 OA
HETATM   35  C   UNL     1      -2.490  12.838  21.150  0.00  0.00     0.210 C 
ENDBRANCH  31  34
ENDBRANCH  27  28
ENDBRANCH  24  27
ENDBRANCH   1  23
BRANCH   6  36
HETATM   36  O   UNL     1       4.237   7.518  26.409  0.00  0.00    -0.360 OA
HETATM   37  H   UNL     1       3.774   8.340  26.644  0.00  0.00     0.217 HD
ENDBRANCH   6  36
TORSDOF 8
ENDMDL
MODEL 3
REMARK VINA RESULT:    -8.544      1.611      2.701
REMARK INTER + INTRA:         -13.736
REMARK INTER:                 -11.576
REMARK INTRA:                  -2.160
REMARK UNBOUND:                -1.695
REMARK  8 active torsions:
REMARK  status: ('A' for Active; 'I' for Inactive)
REMARK    1  A    between atoms: O_2  and  C_3 
REMARK    2  A    between atoms: C_6  and  C_7 
REMARK    3  A    between atoms: C_7  and  N_8 
REMARK       I    between atoms: N_8  and  C_10 
REMARK    4  A    between atoms: C_10  and  C_12 
REMARK    5  A    between atoms: C_14  and  C_15 
REMARK    6  A    between atoms: N_21  and  C_22 
REMARK    7  A    between atoms: C_29  and  O_30 
REMARK    8  A    between atoms: C_32  and  O_33 
ROOT
HETATM    1  C   UNL     1       2.836   7.437  24.383  0.00  0.00     0.066 C 
HETATM    2  C   UNL     1       2.579   6.785  23.153  0.00  0.00     0.038 C 
HETATM    3  C   UNL     1       3.081   5.504  22.894  0.00  0.00     0.046 C 
HETATM    4  C   UNL     1       3.653   4.782  23.950  0.00  0.00     0.082 C 
HETATM    5  C   UNL     1       3.993   5.417  25.133  0.00  0.00     0.075 C 
HETATM    6  C   UNL     1       3.672   6.763  25.297  0.00  0.00     0.084 C 
ENDROOT
BRANCH   3   7
HETATM    7  C   UNL     1       3.039   4.871  21.554  0.00  0.00     0.172 A 
HETATM    8  N   UNL     1       2.271   3.824  21.357  0.00  0.00    -0.151 NA
HETATM    9  N   UNL     1       2.510   3.465  20.065  0.00  0.00    -0.226 N 
HETATM   10  H   UNL     1       2.167   2.605  19.662  0.00  0.00     0.194 HD
HETATM   11  C   UNL     1       3.500   4.261  19.503  0.00  0.00     0.349 A 
HETATM   12  O   UNL     1       4.028   4.029  18.429  0.00  0.00    -0.245 OA
HETATM   13  N   UNL     1       3.776   5.236  20.449  0.00  0.00    -0.244 N 
BRANCH  13  14
HETATM   14  C   UNL     1       4.791   6.211  20.280  0.00  0.00     0.051 A 
HETATM   15  C   UNL     1       6.097   5.954  20.730  0.00  0.00     0.031 A 
HETATM   16  C   UNL     1       7.097   6.932  20.648  0.00  0.00     0.002 A 
HETATM   17  C   UNL     1       6.796   8.197  20.157  0.00  0.00     0.001 A 
HETATM   18  C   UNL     1       5.523   8.453  19.660  0.00  0.00     0.009 A 
HETATM   19  C   UNL     1       4.525   7.461  19.668  0.00  0.00    -0.035 A 
HETATM   20  C   UNL     1       3.245   7.789  18.945  0.00  0.00     0.050 C 
ENDBRANCH  13  14
ENDBRANCH   3   7
BRANCH   4  21
HETATM   21  O   UNL     1       3.903   3.439  23.894  0.00  0.00    -0.360 OA
HETATM   22  H   UNL     1       4.864   3.314  23.729  0.00  0.00     0.217 HD
ENDBRANCH   4  21
BRANCH   1  23
HETATM   23  C   UNL     1       2.156   8.693  24.846  0.00  0.00     0.256 C 
HETATM   24  N   UNL     1       0.842   8.735  25.327  0.00  0.00    -0.348 N 
HETATM   25  C   UNL     1      -0.062   7.617  25.477  0.00  0.00     0.153 C 
HETATM   26  O   UNL     1       2.844   9.715  24.862  0.00  0.00    -0.267 OA
BRANCH  24  27
HETATM   27  C   UNL     1       0.392  10.003  25.902  0.00  0.00     0.164 C 
BRANCH  27  28
HETATM   28  C   UNL     1      -0.561  10.785  25.021  0.00  0.00    -0.040 A 
HETATM   29  C   UNL     1      -0.096  11.719  24.086  0.00  0.00     0.011 A 
HETATM   30  C   UNL     1      -0.982  12.333  23.194  0.00  0.00     0.037 A 
HETATM   31  C   UNL     1      -2.339  12.006  23.208  0.00  0.00     0.068 A 
HETATM   32  C   UNL     1      -2.820  11.134  24.182  0.00  0.00     0.037 A 
HETATM   33  C   UNL     1      -1.938  10.537  25.088  0.00  0.00     0.011 A 
BRANCH  31  34
HETATM   34  O   UNL     1      -3.110  12.612  22.254  0.00  0.00    -0.356 OA
HETATM   35  C   UNL     1      -2.426  12.924  21.042  0.00  0.00     0.210 C 
ENDBRANCH  31  34
ENDBRANCH  27  28
ENDBRANCH  24  27
ENDBRANCH   1  23
BRANCH   6  36
HETATM   36  O   UNL     1       4.218   7.425  26.370  0.00  0.00    -0.360 OA
HETATM   37  H   UNL     1       4.983   7.949  26.082  0.00  0.00     0.217 HD
ENDBRANCH   6  36
TORSDOF 8
ENDMDL
MODEL 4
REMARK VINA RESULT:    -8.456      4.363      7.808
REMARK INTER + INTRA:         -13.611
REMARK INTER:                 -11.708
REMARK INTRA:                  -1.902
REMARK UNBOUND:                -1.695
REMARK  8 active torsions:
REMARK  status: ('A' for Active; 'I' for Inactive)
REMARK    1  A    between atoms: O_2  and  C_3 
REMARK    2  A    between atoms: C_6  and  C_7 
REMARK    3  A    between atoms: C_7  and  N_8 
REMARK       I    between atoms: N_8  and  C_10 
REMARK    4  A    between atoms: C_10  and  C_12 
REMARK    5  A    between atoms: C_14  and  C_15 
REMARK    6  A    between atoms: N_21  and  C_22 
REMARK    7  A    between atoms: C_29  and  O_30 
REMARK    8  A    between atoms: C_32  and  O_33 
ROOT
HETATM    1  C   UNL     1       2.035   5.636  17.480  0.00  0.00     0.066 C 
HETATM    2  C   UNL     1       3.210   5.838  18.244  0.00  0.00     0.038 C 
HETATM    3  C   UNL     1       3.633   7.125  18.596  0.00  0.00     0.046 C 
HETATM    4  C   UNL     1       2.761   8.200  18.376  0.00  0.00     0.082 C 
HETATM    5  C   UNL     1       1.652   8.051  17.560  0.00  0.00     0.075 C 
HETATM    6  C   UNL     1       1.358   6.792  17.039  0.00  0.00     0.084 C 
ENDROOT
BRANCH   3   7
HETATM    7  C   UNL     1       4.960   7.410  19.193  0.00  0.00     0.172 A 
HETATM    8  N   UNL     1       5.809   8.175  18.548  0.00  0.00    -0.151 NA
HETATM    9  N   UNL     1       6.925   8.181  19.330  0.00  0.00    -0.226 N 
HETATM   10  H   UNL     1       7.804   8.574  19.027  0.00  0.00     0.194 HD
HETATM   11  C   UNL     1       6.770   7.338  20.422  0.00  0.00     0.349 A 
HETATM   12  O   UNL     1       7.680   7.021  21.168  0.00  0.00    -0.245 OA
HETATM   13  N   UNL     1       5.452   6.909  20.378  0.00  0.00    -0.244 N 
BRANCH  13  14
HETATM   14  C   UNL     1       4.915   5.969  21.294  0.00  0.00     0.051 A 
HETATM   15  C   UNL     1       5.165   4.597  21.124  0.00  0.00     0.031 A 
HETATM   16  C   UNL     1       4.578   3.644  21.967  0.00  0.00     0.002 A 
HETATM   17  C   UNL     1       3.696   4.045  22.964  0.00  0.00     0.001 A 
HETATM   18  C   UNL     1       3.477   5.401  23.180  0.00  0.00     0.009 A 
HETATM   19  C   UNL     1       4.113   6.376  22.389  0.00  0.00    -0.035 A 
HETATM   20  C   UNL     1       3.945   7.808  22.824  0.00  0.00     0.050 C 
ENDBRANCH  13  14
ENDBRANCH   3   7
BRANCH   4  21
HETATM   21  O   UNL     1       2.934   9.436  18.936  0.00  0.00    -0.360 OA
HETATM   22  H   UNL     1       3.899   9.595  19.033  0.00  0.00     0.217 HD
ENDBRANCH   4  21
BRANCH   1  23
HETATM   23  C   UNL     1       1.378   4.306  17.255  0.00  0.00     0.256 C 
HETATM   24  N   UNL     1       0.943   3.468  18.289  0.00  0.00    -0.348 N 
HETATM   25  C   UNL     1       1.030   3.727  19.708  0.00  0.00     0.153 C 
HETATM   26  O   UNL     1       1.152   3.996  16.084  0.00  0.00    -0.267 OA
BRANCH  24  27
HETATM   27  C   UNL     1       0.164   2.292  17.900  0.00  0.00     0.164 C 
BRANCH  27  28
HETATM   28  C   UNL     1      -1.066   2.048  18.750  0.00  0.00    -0.040 A 
HETATM   29  C   UNL     1      -2.166   2.915  18.714  0.00  0.00     0.011 A 
HETATM   30  C   UNL     1      -3.341   2.601  19.407  0.00  0.00     0.037 A 
HETATM   31  C   UNL     1      -3.441   1.409  20.125  0.00  0.00     0.068 A 
HETATM   32  C   UNL     1      -2.327   0.578  20.227  0.00  0.00     0.037 A 
HETATM   33  C   UNL     1      -1.146   0.902  19.553  0.00  0.00     0.011 A 
BRANCH  31  34
HETATM   34  O   UNL     1      -4.653   1.165  20.714  0.00  0.00    -0.356 OA
HETATM   35  C   UNL     1      -5.747   1.882  20.148  0.00  0.00     0.210 C 
ENDBRANCH  31  34
ENDBRANCH  27  28
ENDBRANCH  24  27
ENDBRANCH   1  23
BRANCH   6  36
HETATM   36  O   UNL     1       0.399   6.713  16.059  0.00  0.00    -0.360 OA
HETATM   37  H   UNL     1      -0.475   6.577  16.461  0.00  0.00     0.217 HD
ENDBRANCH   6  36
TORSDOF 8
ENDMDL
MODEL 5
REMARK VINA RESULT:    -8.291      2.576      4.543
REMARK INTER + INTRA:         -13.379
REMARK INTER:                 -11.433
REMARK INTRA:                  -1.947
REMARK UNBOUND:                -1.695
REMARK  8 active torsions:
REMARK  status: ('A' for Active; 'I' for Inactive)
REMARK    1  A    between atoms: O_2  and  C_3 
REMARK    2  A    between atoms: C_6  and  C_7 
REMARK    3  A    between atoms: C_7  and  N_8 
REMARK       I    between atoms: N_8  and  C_10 
REMARK    4  A    between atoms: C_10  and  C_12 
REMARK    5  A    between atoms: C_14  and  C_15 
REMARK    6  A    between atoms: N_21  and  C_22 
REMARK    7  A    between atoms: C_29  and  O_30 
REMARK    8  A    between atoms: C_32  and  O_33 
ROOT
HETATM    1  C   UNL     1       3.952   7.898  20.511  0.00  0.00     0.066 C 
HETATM    2  C   UNL     1       2.942   7.426  19.639  0.00  0.00     0.038 C 
HETATM    3  C   UNL     1       3.262   6.861  18.398  0.00  0.00     0.046 C 
HETATM    4  C   UNL     1       4.603   6.564  18.123  0.00  0.00     0.082 C 
HETATM    5  C   UNL     1       5.615   7.086  18.911  0.00  0.00     0.075 C 
HETATM    6  C   UNL     1       5.280   7.833  20.039  0.00  0.00     0.084 C 
ENDROOT
BRANCH   3   7
HETATM    7  C   UNL     1       2.249   6.561  17.356  0.00  0.00     0.172 A 
HETATM    8  N   UNL     1       1.895   7.499  16.509  0.00  0.00    -0.151 NA
HETATM    9  N   UNL     1       0.927   6.920  15.746  0.00  0.00    -0.226 N 
HETATM   10  H   UNL     1       0.360   7.440  15.092  0.00  0.00     0.194 HD
HETATM   11  C   UNL     1       0.640   5.638  16.196  0.00  0.00     0.349 A 
HETATM   12  O   UNL     1      -0.309   4.980  15.807  0.00  0.00    -0.245 OA
HETATM   13  N   UNL     1       1.570   5.374  17.189  0.00  0.00    -0.244 N 
BRANCH  13  14
HETATM   14  C   UNL     1       1.567   4.180  17.953  0.00  0.00     0.051 A 
HETATM   15  C   UNL     1       2.419   3.118  17.605  0.00  0.00     0.031 A 
HETATM   16  C   UNL     1       2.375   1.899  18.296  0.00  0.00     0.002 A 
HETATM   17  C   UNL     1       1.448   1.708  19.315  0.00  0.00     0.001 A 
HETATM   18  C   UNL     1       0.635   2.764  19.707  0.00  0.00     0.009 A 
HETATM   19  C   UNL     1       0.713   4.019  19.072  0.00  0.00    -0.035 A 
HETATM   20  C   UNL     1      -0.083   5.137  19.693  0.00  0.00     0.050 C 
ENDBRANCH  13  14
ENDBRANCH   3   7
BRANCH   4  21
HETATM   21  O   UNL     1       4.999   5.757  17.092  0.00  0.00    -0.360 OA
HETATM   22  H   UNL     1       5.487   6.310  16.441  0.00  0.00     0.217 HD
ENDBRANCH   4  21
BRANCH   1  23
HETATM   23  C   UNL     1       3.732   8.296  21.941  0.00  0.00     0.256 C 
HETATM   24  N   UNL     1       3.340   7.404  22.946  0.00  0.00    -0.348 N 
HETATM   25  C   UNL     1       3.099   5.986  22.800  0.00  0.00     0.153 C 
HETATM   26  O   UNL     1       3.993   9.465  22.231  0.00  0.00    -0.267 OA
BRANCH  24  27
HETATM   27  C   UNL     1       3.342   7.915  24.317  0.00  0.00     0.164 C 
BRANCH  27  28
HETATM   28  C   UNL     1       2.035   8.545  24.751  0.00  0.00    -0.040 A 
HETATM   29  C   UNL     1       1.887   9.935  24.847  0.00  0.00     0.011 A 
HETATM   30  C   UNL     1       0.636  10.499  25.122  0.00  0.00     0.037 A 
HETATM   31  C   UNL     1      -0.487   9.686  25.282  0.00  0.00     0.068 A 
HETATM   32  C   UNL     1      -0.334   8.301  25.262  0.00  0.00     0.037 A 
HETATM   33  C   UNL     1       0.920   7.736  25.009  0.00  0.00     0.011 A 
BRANCH  31  34
HETATM   34  O   UNL     1      -1.674  10.337  25.484  0.00  0.00    -0.356 OA
HETATM   35  C   UNL     1      -2.230  10.939  24.317  0.00  0.00     0.210 C 
ENDBRANCH  31  34
ENDBRANCH  27  28
ENDBRANCH  24  27
ENDBRANCH   1  23
BRANCH   6  36
HETATM   36  O   UNL     1       6.283   8.527  20.668  0.00  0.00    -0.360 OA
HETATM   37  H   UNL     1       6.602   8.025  21.437  0.00  0.00     0.217 HD
ENDBRANCH   6  36
TORSDOF 8
ENDMDL
MODEL 6
REMARK VINA RESULT:    -8.134      3.972      6.060
REMARK INTER + INTRA:         -13.158
REMARK INTER:                 -11.063
REMARK INTRA:                  -2.095
REMARK UNBOUND:                -1.695
REMARK  8 active torsions:
REMARK  status: ('A' for Active; 'I' for Inactive)
REMARK    1  A    between atoms: O_2  and  C_3 
REMARK    2  A    between atoms: C_6  and  C_7 
REMARK    3  A    between atoms: C_7  and  N_8 
REMARK       I    between atoms: N_8  and  C_10 
REMARK    4  A    between atoms: C_10  and  C_12 
REMARK    5  A    between atoms: C_14  and  C_15 
REMARK    6  A    between atoms: N_21  and  C_22 
REMARK    7  A    between atoms: C_29  and  O_30 
REMARK    8  A    between atoms: C_32  and  O_33 
ROOT
HETATM    1  C   UNL     1       2.702   8.316  25.451  0.00  0.00     0.066 C 
HETATM    2  C   UNL     1       2.929   7.649  26.680  0.00  0.00     0.038 C 
HETATM    3  C   UNL     1       3.752   6.519  26.749  0.00  0.00     0.046 C 
HETATM    4  C   UNL     1       4.528   6.186  25.631  0.00  0.00     0.082 C 
HETATM    5  C   UNL     1       4.269   6.760  24.398  0.00  0.00     0.075 C 
HETATM    6  C   UNL     1       3.289   7.747  24.302  0.00  0.00     0.084 C 
ENDROOT
BRANCH   3   7
HETATM    7  C   UNL     1       3.844   5.653  27.950  0.00  0.00     0.172 A 
HETATM    8  N   UNL     1       5.004   5.487  28.540  0.00  0.00    -0.151 NA
HETATM    9  N   UNL     1       4.750   4.607  29.548  0.00  0.00    -0.226 N 
HETATM   10  H   UNL     1       5.480   4.177  30.098  0.00  0.00     0.194 HD
HETATM   11  C   UNL     1       3.430   4.175  29.511  0.00  0.00     0.349 A 
HETATM   12  O   UNL     1       3.000   3.254  30.181  0.00  0.00    -0.245 OA
HETATM   13  N   UNL     1       2.819   4.931  28.522  0.00  0.00    -0.244 N 
BRANCH  13  14
HETATM   14  C   UNL     1       1.472   4.740  28.126  0.00  0.00     0.051 A 
HETATM   15  C   UNL     1       1.120   3.634  27.332  0.00  0.00     0.031 A 
HETATM   16  C   UNL     1      -0.189   3.469  26.861  0.00  0.00     0.002 A 
HETATM   17  C   UNL     1      -1.156   4.429  27.136  0.00  0.00     0.001 A 
HETATM   18  C   UNL     1      -0.839   5.502  27.962  0.00  0.00     0.009 A 
HETATM   19  C   UNL     1       0.452   5.647  28.504  0.00  0.00    -0.035 A 
HETATM   20  C   UNL     1       0.632   6.741  29.523  0.00  0.00     0.050 C 
ENDBRANCH  13  14
ENDBRANCH   3   7
BRANCH   4  21
HETATM   21  O   UNL     1       5.570   5.300  25.675  0.00  0.00    -0.360 OA
HETATM   22  H   UNL     1       5.242   4.427  25.364  0.00  0.00     0.217 HD
ENDBRANCH   4  21
BRANCH   1  23
HETATM   23  C   UNL     1       2.038   9.655  25.313  0.00  0.00     0.256 C 
HETATM   24  N   UNL     1       0.728   9.921  25.730  0.00  0.00    -0.348 N 
HETATM   25  C   UNL     1      -0.185   8.995  26.361  0.00  0.00     0.153 C 
HETATM   26  O   UNL     1       2.736  10.570  24.874  0.00  0.00    -0.267 OA
BRANCH  24  27
HETATM   27  C   UNL     1       0.294  11.318  25.687  0.00  0.00     0.164 C 
BRANCH  27  28
HETATM   28  C   UNL     1      -0.595  11.659  24.509  0.00  0.00    -0.040 A 
HETATM   29  C   UNL     1      -1.947  11.296  24.481  0.00  0.00     0.011 A 
HETATM   30  C   UNL     1      -2.780  11.735  23.446  0.00  0.00     0.037 A 
HETATM   31  C   UNL     1      -2.279  12.560  22.438  0.00  0.00     0.068 A 
HETATM   32  C   UNL     1      -0.920  12.864  22.417  0.00  0.00     0.037 A 
HETATM   33  C   UNL     1      -0.083  12.408  23.441  0.00  0.00     0.011 A 
BRANCH  31  34
HETATM   34  O   UNL     1      -3.188  12.987  21.507  0.00  0.00    -0.356 OA
HETATM   35  C   UNL     1      -2.623  13.672  20.392  0.00  0.00     0.210 C 
ENDBRANCH  31  34
ENDBRANCH  27  28
ENDBRANCH  24  27
ENDBRANCH   1  23
BRANCH   6  36
HETATM   36  O   UNL     1       2.892   8.134  23.046  0.00  0.00    -0.360 OA
HETATM   37  H   UNL     1       2.115   8.715  23.108  0.00  0.00     0.217 HD
ENDBRANCH   6  36
TORSDOF 8
ENDMDL
MODEL 7
REMARK VINA RESULT:    -8.094      2.916      4.910
REMARK INTER + INTRA:         -13.102
REMARK INTER:                 -11.095
REMARK INTRA:                  -2.007
REMARK UNBOUND:                -1.695
REMARK  8 active torsions:
REMARK  status: ('A' for Active; 'I' for Inactive)
REMARK    1  A    between atoms: O_2  and  C_3 
REMARK    2  A    between atoms: C_6  and  C_7 
REMARK    3  A    between atoms: C_7  and  N_8 
REMARK       I    between atoms: N_8  and  C_10 
REMARK    4  A    between atoms: C_10  and  C_12 
REMARK    5  A    between atoms: C_14  and  C_15 
REMARK    6  A    between atoms: N_21  and  C_22 
REMARK    7  A    between atoms: C_29  and  O_30 
REMARK    8  A    between atoms: C_32  and  O_33 
ROOT
HETATM    1  C   UNL     1       4.057   8.143  20.409  0.00  0.00     0.066 C 
HETATM    2  C   UNL     1       3.008   7.617  19.617  0.00  0.00     0.038 C 
HETATM    3  C   UNL     1       3.272   6.975  18.400  0.00  0.00     0.046 C 
HETATM    4  C   UNL     1       4.600   6.660  18.083  0.00  0.00     0.082 C 
HETATM    5  C   UNL     1       5.646   7.231  18.788  0.00  0.00     0.075 C 
HETATM    6  C   UNL     1       5.361   8.047  19.881  0.00  0.00     0.084 C 
ENDROOT
BRANCH   3   7
HETATM    7  C   UNL     1       2.213   6.610  17.428  0.00  0.00     0.172 A 
HETATM    8  N   UNL     1       1.741   7.523  16.613  0.00  0.00    -0.151 NA
HETATM    9  N   UNL     1       0.763   6.882  15.913  0.00  0.00    -0.226 N 
HETATM   10  H   UNL     1       0.121   7.364  15.302  0.00  0.00     0.194 HD
HETATM   11  C   UNL     1       0.592   5.583  16.375  0.00  0.00     0.349 A 
HETATM   12  O   UNL     1      -0.336   4.865  16.047  0.00  0.00    -0.245 OA
HETATM   13  N   UNL     1       1.603   5.381  17.301  0.00  0.00    -0.244 N 
BRANCH  13  14
HETATM   14  C   UNL     1       1.731   4.189  18.057  0.00  0.00     0.051 A 
HETATM   15  C   UNL     1       2.616   3.180  17.640  0.00  0.00     0.031 A 
HETATM   16  C   UNL     1       2.698   1.960  18.325  0.00  0.00     0.002 A 
HETATM   17  C   UNL     1       1.865   1.712  19.410  0.00  0.00     0.001 A 
HETATM   18  C   UNL     1       1.021   2.718  19.869  0.00  0.00     0.009 A 
HETATM   19  C   UNL     1       0.976   3.975  19.237  0.00  0.00    -0.035 A 
HETATM   20  C   UNL     1       0.163   5.042  19.922  0.00  0.00     0.050 C 
ENDBRANCH  13  14
ENDBRANCH   3   7
BRANCH   4  21
HETATM   21  O   UNL     1       4.949   5.789  17.088  0.00  0.00    -0.360 OA
HETATM   22  H   UNL     1       4.463   4.947  17.233  0.00  0.00     0.217 HD
ENDBRANCH   4  21
BRANCH   1  23
HETATM   23  C   UNL     1       3.903   8.631  21.820  0.00  0.00     0.256 C 
HETATM   24  N   UNL     1       3.640   7.792  22.909  0.00  0.00    -0.348 N 
HETATM   25  C   UNL     1       3.490   6.355  22.880  0.00  0.00     0.153 C 
HETATM   26  O   UNL     1       4.099   9.832  22.009  0.00  0.00    -0.267 OA
BRANCH  24  27
HETATM   27  C   UNL     1       3.695   8.402  24.239  0.00  0.00     0.164 C 
BRANCH  27  28
HETATM   28  C   UNL     1       2.340   8.727  24.833  0.00  0.00    -0.040 A 
HETATM   29  C   UNL     1       1.642   7.801  25.618  0.00  0.00     0.011 A 
HETATM   30  C   UNL     1       0.456   8.168  26.264  0.00  0.00     0.037 A 
HETATM   31  C   UNL     1      -0.036   9.469  26.154  0.00  0.00     0.068 A 
HETATM   32  C   UNL     1       0.611  10.374  25.315  0.00  0.00     0.037 A 
HETATM   33  C   UNL     1       1.785  10.002  24.652  0.00  0.00     0.011 A 
BRANCH  31  34
HETATM   34  O   UNL     1      -1.167   9.745  26.874  0.00  0.00    -0.356 OA
HETATM   35  C   UNL     1      -0.938  10.056  28.247  0.00  0.00     0.210 C 
ENDBRANCH  31  34
ENDBRANCH  27  28
ENDBRANCH  24  27
ENDBRANCH   1  23
BRANCH   6  36
HETATM   36  O   UNL     1       6.392   8.779  20.418  0.00  0.00    -0.360 OA
HETATM   37  H   UNL     1       7.100   8.886  19.762  0.00  0.00     0.217 HD
ENDBRANCH   6  36
TORSDOF 8
ENDMDL
MODEL 8
REMARK VINA RESULT:    -7.953      3.320      7.999
REMARK INTER + INTRA:         -12.903
REMARK INTER:                 -11.079
REMARK INTRA:                  -1.824
REMARK UNBOUND:                -1.695
REMARK  8 active torsions:
REMARK  status: ('A' for Active; 'I' for Inactive)
REMARK    1  A    between atoms: O_2  and  C_3 
REMARK    2  A    between atoms: C_6  and  C_7 
REMARK    3  A    between atoms: C_7  and  N_8 
REMARK       I    between atoms: N_8  and  C_10 
REMARK    4  A    between atoms: C_10  and  C_12 
REMARK    5  A    between atoms: C_14  and  C_15 
REMARK    6  A    between atoms: N_21  and  C_22 
REMARK    7  A    between atoms: C_29  and  O_30 
REMARK    8  A    between atoms: C_32  and  O_33 
ROOT
HETATM    1  C   UNL     1       2.218   9.254  25.374  0.00  0.00     0.066 C 
HETATM    2  C   UNL     1       1.940   8.576  26.586  0.00  0.00     0.038 C 
HETATM    3  C   UNL     1       0.770   8.839  27.311  0.00  0.00     0.046 C 
HETATM    4  C   UNL     1      -0.229   9.616  26.710  0.00  0.00     0.082 C 
HETATM    5  C   UNL     1       0.044  10.357  25.573  0.00  0.00     0.075 C 
HETATM    6  C   UNL     1       1.298  10.246  24.976  0.00  0.00     0.084 C 
ENDROOT
BRANCH   3   7
HETATM    7  C   UNL     1       0.536   8.334  28.685  0.00  0.00     0.172 A 
HETATM    8  N   UNL     1       0.613   9.163  29.700  0.00  0.00    -0.151 NA
HETATM    9  N   UNL     1       0.408   8.379  30.796  0.00  0.00    -0.226 N 
HETATM   10  H   UNL     1       0.546   8.709  31.740  0.00  0.00     0.194 HD
HETATM   11  C   UNL     1       0.287   7.043  30.435  0.00  0.00     0.349 A 
HETATM   12  O   UNL     1       0.285   6.123  31.234  0.00  0.00    -0.245 OA
HETATM   13  N   UNL     1       0.278   7.031  29.049  0.00  0.00    -0.244 N 
BRANCH  13  14
HETATM   14  C   UNL     1       0.239   5.836  28.287  0.00  0.00     0.051 A 
HETATM   15  C   UNL     1      -0.966   5.413  27.700  0.00  0.00     0.031 A 
HETATM   16  C   UNL     1      -1.047   4.194  27.012  0.00  0.00     0.002 A 
HETATM   17  C   UNL     1       0.062   3.359  26.939  0.00  0.00     0.001 A 
HETATM   18  C   UNL     1       1.275   3.785  27.469  0.00  0.00     0.009 A 
HETATM   19  C   UNL     1       1.394   5.037  28.101  0.00  0.00    -0.035 A 
HETATM   20  C   UNL     1       2.787   5.469  28.476  0.00  0.00     0.050 C 
ENDBRANCH  13  14
ENDBRANCH   3   7
BRANCH   4  21
HETATM   21  O   UNL     1      -1.509   9.693  27.186  0.00  0.00    -0.360 OA
HETATM   22  H   UNL     1      -1.498   9.442  28.137  0.00  0.00     0.217 HD
ENDBRANCH   4  21
BRANCH   1  23
HETATM   23  C   UNL     1       3.310   8.880  24.415  0.00  0.00     0.256 C 
HETATM   24  N   UNL     1       3.473   7.596  23.883  0.00  0.00    -0.348 N 
HETATM   25  C   UNL     1       2.642   6.441  24.138  0.00  0.00     0.153 C 
HETATM   26  O   UNL     1       4.043   9.795  24.035  0.00  0.00    -0.267 OA
BRANCH  24  27
HETATM   27  C   UNL     1       4.476   7.442  22.829  0.00  0.00     0.164 C 
BRANCH  27  28
HETATM   28  C   UNL     1       3.912   7.460  21.423  0.00  0.00    -0.040 A 
HETATM   29  C   UNL     1       3.966   8.610  20.626  0.00  0.00     0.011 A 
HETATM   30  C   UNL     1       3.558   8.568  19.288  0.00  0.00     0.037 A 
HETATM   31  C   UNL     1       3.113   7.372  18.722  0.00  0.00     0.068 A 
HETATM   32  C   UNL     1       2.987   6.242  19.527  0.00  0.00     0.037 A 
HETATM   33  C   UNL     1       3.374   6.290  20.870  0.00  0.00     0.011 A 
BRANCH  31  34
HETATM   34  O   UNL     1       2.799   7.421  17.391  0.00  0.00    -0.356 OA
HETATM   35  C   UNL     1       1.657   8.214  17.076  0.00  0.00     0.210 C 
ENDBRANCH  31  34
ENDBRANCH  27  28
ENDBRANCH  24  27
ENDBRANCH   1  23
BRANCH   6  36
HETATM   36  O   UNL     1       1.623  11.151  23.996  0.00  0.00    -0.360 OA
HETATM   37  H   UNL     1       2.239  11.815  24.348  0.00  0.00     0.217 HD
ENDBRANCH   6  36
TORSDOF 8
ENDMDL
MODEL 9
REMARK VINA RESULT:    -7.804      2.756      7.290
REMARK INTER + INTRA:         -12.692
REMARK INTER:                 -10.997
REMARK INTRA:                  -1.695
REMARK UNBOUND:                -1.695
REMARK  8 active torsions:
REMARK  status: ('A' for Active; 'I' for Inactive)
REMARK    1  A    between atoms: O_2  and  C_3 
REMARK    2  A    between atoms: C_6  and  C_7 
REMARK    3  A    between atoms: C_7  and  N_8 
REMARK       I    between atoms: N_8  and  C_10 
REMARK    4  A    between atoms: C_10  and  C_12 
REMARK    5  A    between atoms: C_14  and  C_15 
REMARK    6  A    between atoms: N_21  and  C_22 
REMARK    7  A    between atoms: C_29  and  O_30 
REMARK    8  A    between atoms: C_32  and  O_33 
ROOT
HETATM    1  C   UNL     1       3.997   6.924  22.249  0.00  0.00     0.066 C 
HETATM    2  C   UNL     1       2.966   6.618  23.170  0.00  0.00     0.038 C 
HETATM    3  C   UNL     1       3.260   6.169  24.463  0.00  0.00     0.046 C 
HETATM    4  C   UNL     1       4.585   6.240  24.912  0.00  0.00     0.082 C 
HETATM    5  C   UNL     1       5.621   6.452  24.017  0.00  0.00     0.075 C 
HETATM    6  C   UNL     1       5.320   6.691  22.677  0.00  0.00     0.084 C 
ENDROOT
BRANCH   3   7
HETATM    7  C   UNL     1       2.236   5.622  25.386  0.00  0.00     0.172 A 
HETATM    8  N   UNL     1       2.273   4.351  25.713  0.00  0.00    -0.151 NA
HETATM    9  N   UNL     1       1.180   4.172  26.507  0.00  0.00    -0.226 N 
HETATM   10  H   UNL     1       0.862   3.261  26.803  0.00  0.00     0.194 HD
HETATM   11  C   UNL     1       0.430   5.338  26.590  0.00  0.00     0.349 A 
HETATM   12  O   UNL     1      -0.684   5.393  27.081  0.00  0.00    -0.245 OA
HETATM   13  N   UNL     1       1.172   6.306  25.932  0.00  0.00    -0.244 N 
BRANCH  13  14
HETATM   14  C   UNL     1       0.711   7.632  25.735  0.00  0.00     0.051 A 
HETATM   15  C   UNL     1      -0.411   7.875  24.924  0.00  0.00     0.031 A 
HETATM   16  C   UNL     1      -0.836   9.182  24.650  0.00  0.00     0.002 A 
HETATM   17  C   UNL     1      -0.120  10.267  25.144  0.00  0.00     0.001 A 
HETATM   18  C   UNL     1       0.961  10.045  25.990  0.00  0.00     0.009 A 
HETATM   19  C   UNL     1       1.359   8.740  26.335  0.00  0.00    -0.035 A 
HETATM   20  C   UNL     1       2.423   8.621  27.395  0.00  0.00     0.050 C 
ENDBRANCH  13  14
ENDBRANCH   3   7
BRANCH   4  21
HETATM   21  O   UNL     1       4.942   6.115  26.226  0.00  0.00    -0.360 OA
HETATM   22  H   UNL     1       5.872   5.796  26.261  0.00  0.00     0.217 HD
ENDBRANCH   4  21
BRANCH   1  23
HETATM   23  C   UNL     1       3.794   7.626  20.939  0.00  0.00     0.256 C 
HETATM   24  N   UNL     1       3.620   6.963  19.718  0.00  0.00    -0.348 N 
HETATM   25  C   UNL     1       3.589   5.533  19.506  0.00  0.00     0.153 C 
HETATM   26  O   UNL     1       3.704   8.854  20.983  0.00  0.00    -0.267 OA
BRANCH  24  27
HETATM   27  C   UNL     1       3.257   7.788  18.565  0.00  0.00     0.164 C 
BRANCH  27  28
HETATM   28  C   UNL     1       2.187   7.187  17.679  0.00  0.00    -0.040 A 
HETATM   29  C   UNL     1       2.427   6.900  16.329  0.00  0.00     0.011 A 
HETATM   30  C   UNL     1       1.470   6.226  15.563  0.00  0.00     0.037 A 
HETATM   31  C   UNL     1       0.270   5.808  16.141  0.00  0.00     0.068 A 
HETATM   32  C   UNL     1      -0.008   6.153  17.461  0.00  0.00     0.037 A 
HETATM   33  C   UNL     1       0.940   6.847  18.221  0.00  0.00     0.011 A 
BRANCH  31  34
HETATM   34  O   UNL     1      -0.572   5.100  15.326  0.00  0.00    -0.356 OA
HETATM   35  C   UNL     1       0.080   4.324  14.323  0.00  0.00     0.210 C 
ENDBRANCH  31  34
ENDBRANCH  27  28
ENDBRANCH  24  27
ENDBRANCH   1  23
BRANCH   6  36
HETATM   36  O   UNL     1       6.356   6.669  21.776  0.00  0.00    -0.360 OA
HETATM   37  H   UNL     1       7.188   6.900  22.221  0.00  0.00     0.217 HD
ENDBRANCH   6  36
TORSDOF 8
ENDMDL
