MODEL 1
REMARK VINA RESULT:    -9.428      0.000      0.000
REMARK INTER + INTRA:         -12.645
REMARK INTER:                 -11.659
REMARK INTRA:                  -0.985
REMARK UNBOUND:                -0.737
REMARK  5 active torsions:
REMARK  status: ('A' for Active; 'I' for Inactive)
REMARK    1  A    between atoms: C_7  and  N_8 
REMARK       I    between atoms: N_8  and  C_10 
REMARK    2  A    between atoms: C_10  and  C_12 
REMARK    3  A    between atoms: C_14  and  O_15 
REMARK    4  A    between atoms: C_22  and  C_23 
REMARK    5  A    between atoms: C_23  and  C_24 
ROOT
HETATM    1  C   UNL     1       1.571   8.304  25.648  0.00  0.00     0.066 A 
HETATM    2  C   UNL     1       0.366   8.977  25.297  0.00  0.00     0.035 A 
HETATM    3  C   UNL     1       1.963   8.328  26.994  0.00  0.00     0.083 A 
HETATM    4  C   UNL     1       1.169   8.904  27.996  0.00  0.00     0.069 A 
HETATM    5  C   UNL     1      -0.008   9.543  27.603  0.00  0.00     0.065 A 
HETATM    6  C   UNL     1      -0.442   9.591  26.286  0.00  0.00     0.020 A 
HETATM    7  N   UNL     1      -0.931  10.250  28.322  0.00  0.00    -0.277 N 
HETATM    8  H   UNL     1      -0.919  10.453  29.315  0.00  0.00     0.189 HD
HETATM    9  N   UNL     1      -1.936  10.747  27.590  0.00  0.00    -0.178 NA
HETATM   10  C   UNL     1      -1.675  10.320  26.343  0.00  0.00     0.071 A 
ENDROOT
BRANCH   1  11
HETATM   11  C   UNL     1       2.364   7.749  24.490  0.00  0.00     0.260 C 
HETATM   12  N   UNL     1       3.391   8.468  23.817  0.00  0.00    -0.318 N 
HETATM   13  C   UNL     1       3.620   9.898  24.032  0.00  0.00     0.159 C 
HETATM   14  O   UNL     1       2.042   6.595  24.190  0.00  0.00    -0.267 OA
BRANCH  12  15
HETATM   15  C   UNL     1       4.281   7.813  22.859  0.00  0.00     0.038 A 
HETATM   16  C   UNL     1       4.279   8.159  21.496  0.00  0.00     0.053 A 
HETATM   17  C   UNL     1       5.193   7.587  20.594  0.00  0.00     0.036 A 
HETATM   18 CL   UNL     1       5.183   8.070  18.936  0.00  0.00    -0.084 Cl
HETATM   19  C   UNL     1       6.124   6.647  21.016  0.00  0.00     0.024 A 
HETATM   20  C   UNL     1       6.138   6.281  22.354  0.00  0.00     0.004 A 
HETATM   21  C   UNL     1       5.233   6.861  23.261  0.00  0.00     0.030 A 
ENDBRANCH  12  15
ENDBRANCH   1  11
BRANCH   3  22
HETATM   22  O   UNL     1       3.164   7.863  27.456  0.00  0.00    -0.360 OA
HETATM   23  H   UNL     1       3.096   6.899  27.511  0.00  0.00     0.217 HD
ENDBRANCH   3  22
BRANCH  10  24
HETATM   24  C   UNL     1      -2.598  10.711  25.236  0.00  0.00     0.100 C 
BRANCH  24  25
HETATM   25  C   UNL     1      -1.881  11.705  24.347  0.00  0.00    -0.052 A 
HETATM   26  C   UNL     1      -2.241  11.820  22.996  0.00  0.00     0.007 A 
HETATM   27  C   UNL     1      -1.489  12.613  22.128  0.00  0.00     0.001 A 
HETATM   28  C   UNL     1      -0.387  13.323  22.600  0.00  0.00     0.007 A 
HETATM   29  C   UNL     1      -0.040  13.272  23.954  0.00  0.00    -0.061 A 
HETATM   30  C   UNL     1      -0.792  12.462  24.821  0.00  0.00     0.014 A 
HETATM   31  C   UNL     1       1.089  14.112  24.474  0.00  0.00     0.048 C 
ENDBRANCH  24  25
ENDBRANCH  10  24
TORSDOF 5
ENDMDL
MODEL 2
REMARK VINA RESULT:    -9.294      1.344      2.026
REMARK INTER + INTRA:         -12.475
REMARK INTER:                 -11.441
REMARK INTRA:                  -1.034
REMARK UNBOUND:                -0.737
REMARK  5 active torsions:
REMARK  status: ('A' for Active; 'I' for Inactive)
REMARK    1  A    between atoms: C_7  and  N_8 
REMARK       I    between atoms: N_8  and  C_10 
REMARK    2  A    between atoms: C_10  and  C_12 
REMARK    3  A    between atoms: C_14  and  O_15 
REMARK    4  A    between atoms: C_22  and  C_23 
REMARK    5  A    between atoms: C_23  and  C_24 
ROOT
HETATM    1  C   UNL     1       2.487   8.421  24.955  0.00  0.00     0.066 A 
HETATM    2  C   UNL     1       1.206   9.029  24.819  0.00  0.00     0.035 A 
HETATM    3  C   UNL     1       2.896   8.042  26.240  0.00  0.00     0.083 A 
HETATM    4  C   UNL     1       2.057   8.157  27.358  0.00  0.00     0.069 A 
HETATM    5  C   UNL     1       0.808   8.751  27.173  0.00  0.00     0.065 A 
HETATM    6  C   UNL     1       0.349   9.183  25.937  0.00  0.00     0.020 A 
HETATM    7  N   UNL     1      -0.179   9.068  28.065  0.00  0.00    -0.277 N 
HETATM    8  H   UNL     1      -0.173   8.930  29.069  0.00  0.00     0.189 HD
HETATM    9  N   UNL     1      -1.246   9.661  27.516  0.00  0.00    -0.178 NA
HETATM   10  C   UNL     1      -0.958   9.705  26.204  0.00  0.00     0.071 A 
ENDROOT
BRANCH   1  11
HETATM   11  C   UNL     1       3.319   8.378  23.696  0.00  0.00     0.260 C 
HETATM   12  N   UNL     1       3.623   7.181  22.989  0.00  0.00    -0.318 N 
HETATM   13  C   UNL     1       3.353   5.852  23.541  0.00  0.00     0.159 C 
HETATM   14  O   UNL     1       3.701   9.494  23.327  0.00  0.00    -0.267 OA
BRANCH  12  15
HETATM   15  C   UNL     1       4.233   7.212  21.660  0.00  0.00     0.038 A 
HETATM   16  C   UNL     1       3.455   7.345  20.495  0.00  0.00     0.053 A 
HETATM   17  C   UNL     1       4.050   7.458  19.227  0.00  0.00     0.036 A 
HETATM   18 CL   UNL     1       3.059   7.661  17.827  0.00  0.00    -0.084 Cl
HETATM   19  C   UNL     1       5.430   7.429  19.077  0.00  0.00     0.024 A 
HETATM   20  C   UNL     1       6.218   7.287  20.210  0.00  0.00     0.004 A 
HETATM   21  C   UNL     1       5.626   7.186  21.482  0.00  0.00     0.030 A 
ENDBRANCH  12  15
ENDBRANCH   1  11
BRANCH   3  22
HETATM   22  O   UNL     1       4.150   7.591  26.549  0.00  0.00    -0.360 OA
HETATM   23  H   UNL     1       4.053   6.934  27.254  0.00  0.00     0.217 HD
ENDBRANCH   3  22
BRANCH  10  24
HETATM   24  C   UNL     1      -1.940  10.333  25.270  0.00  0.00     0.100 C 
BRANCH  24  25
HETATM   25  C   UNL     1      -1.242  11.456  24.532  0.00  0.00    -0.052 A 
HETATM   26  C   UNL     1      -0.405  12.338  25.231  0.00  0.00     0.007 A 
HETATM   27  C   UNL     1       0.120  13.468  24.602  0.00  0.00     0.001 A 
HETATM   28  C   UNL     1      -0.160  13.718  23.260  0.00  0.00     0.007 A 
HETATM   29  C   UNL     1      -0.945  12.825  22.522  0.00  0.00    -0.061 A 
HETATM   30  C   UNL     1      -1.481  11.696  23.165  0.00  0.00     0.014 A 
HETATM   31  C   UNL     1      -1.164  13.050  21.055  0.00  0.00     0.048 C 
ENDBRANCH  24  25
ENDBRANCH  10  24
TORSDOF 5
ENDMDL
MODEL 3
REMARK VINA RESULT:    -8.825      4.017      7.968
REMARK INTER + INTRA:         -11.883
REMARK INTER:                 -10.852
REMARK INTRA:                  -1.031
REMARK UNBOUND:                -0.737
REMARK  5 active torsions:
REMARK  status: ('A' for Active; 'I' for Inactive)
REMARK    1  A    between atoms: C_7  and  N_8 
REMARK       I    between atoms: N_8  and  C_10 
REMARK    2  A    between atoms: C_10  and  C_12 
REMARK    3  A    between atoms: C_14  and  O_15 
REMARK    4  A    between atoms: C_22  and  C_23 
REMARK    5  A    between atoms: C_23  and  C_24 
ROOT
HETATM    1  C   UNL     1       4.351   7.131  22.863  0.00  0.00     0.066 A 
HETATM    2  C   UNL     1       3.696   7.639  21.704  0.00  0.00     0.035 A 
HETATM    3  C   UNL     1       5.623   6.567  22.697  0.00  0.00     0.083 A 
HETATM    4  C   UNL     1       6.292   6.574  21.464  0.00  0.00     0.069 A 
HETATM    5  C   UNL     1       5.612   7.091  20.360  0.00  0.00     0.065 A 
HETATM    6  C   UNL     1       4.337   7.634  20.441  0.00  0.00     0.020 A 
HETATM    7  N   UNL     1       5.961   7.161  19.041  0.00  0.00    -0.277 N 
HETATM    8  H   UNL     1       6.813   6.825  18.607  0.00  0.00     0.189 HD
HETATM    9  N   UNL     1       5.029   7.712  18.254  0.00  0.00    -0.178 NA
HETATM   10  C   UNL     1       4.040   8.045  19.101  0.00  0.00     0.071 A 
ENDROOT
BRANCH   1  11
HETATM   11  C   UNL     1       3.529   7.142  24.128  0.00  0.00     0.260 C 
HETATM   12  N   UNL     1       2.967   8.319  24.697  0.00  0.00    -0.318 N 
HETATM   13  C   UNL     1       3.327   9.662  24.238  0.00  0.00     0.159 C 
HETATM   14  O   UNL     1       3.376   6.018  24.618  0.00  0.00    -0.267 OA
BRANCH  12  15
HETATM   15  C   UNL     1       1.994   8.252  25.787  0.00  0.00     0.038 A 
HETATM   16  C   UNL     1       2.371   8.460  27.125  0.00  0.00     0.053 A 
HETATM   17  C   UNL     1       1.420   8.478  28.160  0.00  0.00     0.036 A 
HETATM   18 CL   UNL     1       1.921   8.778  29.785  0.00  0.00    -0.084 Cl
HETATM   19  C   UNL     1       0.071   8.277  27.897  0.00  0.00     0.024 A 
HETATM   20  C   UNL     1      -0.324   8.059  26.586  0.00  0.00     0.004 A 
HETATM   21  C   UNL     1       0.624   8.052  25.547  0.00  0.00     0.030 A 
ENDBRANCH  12  15
ENDBRANCH   1  11
BRANCH   3  22
HETATM   22  O   UNL     1       6.307   5.904  23.680  0.00  0.00    -0.360 OA
HETATM   23  H   UNL     1       7.219   6.229  23.663  0.00  0.00     0.217 HD
ENDBRANCH   3  22
BRANCH  10  24
HETATM   24  C   UNL     1       2.803   8.679  18.555  0.00  0.00     0.100 C 
BRANCH  24  25
HETATM   25  C   UNL     1       1.995   7.612  17.845  0.00  0.00    -0.052 A 
HETATM   26  C   UNL     1       1.923   7.606  16.444  0.00  0.00     0.007 A 
HETATM   27  C   UNL     1       1.061   6.731  15.782  0.00  0.00     0.001 A 
HETATM   28  C   UNL     1       0.281   5.831  16.506  0.00  0.00     0.007 A 
HETATM   29  C   UNL     1       0.376   5.776  17.901  0.00  0.00    -0.061 A 
HETATM   30  C   UNL     1       1.236   6.668  18.562  0.00  0.00     0.014 A 
HETATM   31  C   UNL     1      -0.394   4.741  18.667  0.00  0.00     0.048 C 
ENDBRANCH  24  25
ENDBRANCH  10  24
TORSDOF 5
ENDMDL
MODEL 4
REMARK VINA RESULT:    -8.652      3.871      7.874
REMARK INTER + INTRA:         -11.665
REMARK INTER:                 -10.783
REMARK INTRA:                  -0.882
REMARK UNBOUND:                -0.737
REMARK  5 active torsions:
REMARK  status: ('A' for Active; 'I' for Inactive)
REMARK    1  A    between atoms: C_7  and  N_8 
REMARK       I    between atoms: N_8  and  C_10 
REMARK    2  A    between atoms: C_10  and  C_12 
REMARK    3  A    between atoms: C_14  and  O_15 
REMARK    4  A    between atoms: C_22  and  C_23 
REMARK    5  A    between atoms: C_23  and  C_24 
ROOT
HETATM    1  C   UNL     1       4.239   7.389  22.939  0.00  0.00     0.066 A 
HETATM    2  C   UNL     1       3.662   7.820  21.710  0.00  0.00     0.035 A 
HETATM    3  C   UNL     1       5.440   6.670  22.879  0.00  0.00     0.083 A 
HETATM    4  C   UNL     1       6.123   6.449  21.674  0.00  0.00     0.069 A 
HETATM    5  C   UNL     1       5.522   6.899  20.497  0.00  0.00     0.065 A 
HETATM    6  C   UNL     1       4.317   7.586  20.475  0.00  0.00     0.020 A 
HETATM    7  N   UNL     1       5.895   6.765  19.189  0.00  0.00    -0.277 N 
HETATM    8  H   UNL     1       6.709   6.285  18.823  0.00  0.00     0.189 HD
HETATM    9  N   UNL     1       5.044   7.316  18.315  0.00  0.00    -0.178 NA
HETATM   10  C   UNL     1       4.087   7.859  19.087  0.00  0.00     0.071 A 
ENDROOT
BRANCH   1  11
HETATM   11  C   UNL     1       3.406   7.649  24.170  0.00  0.00     0.260 C 
HETATM   12  N   UNL     1       3.048   8.949  24.624  0.00  0.00    -0.318 N 
HETATM   13  C   UNL     1       3.647  10.166  24.073  0.00  0.00     0.159 C 
HETATM   14  O   UNL     1       3.048   6.613  24.742  0.00  0.00    -0.267 OA
BRANCH  12  15
HETATM   15  C   UNL     1       2.055   9.144  25.681  0.00  0.00     0.038 A 
HETATM   16  C   UNL     1       0.804   9.728  25.419  0.00  0.00     0.053 A 
HETATM   17  C   UNL     1      -0.178   9.838  26.418  0.00  0.00     0.036 A 
HETATM   18 CL   UNL     1      -1.717  10.525  26.042  0.00  0.00    -0.084 Cl
HETATM   19  C   UNL     1       0.060   9.383  27.709  0.00  0.00     0.024 A 
HETATM   20  C   UNL     1       1.291   8.812  27.995  0.00  0.00     0.004 A 
HETATM   21  C   UNL     1       2.271   8.690  26.994  0.00  0.00     0.030 A 
ENDBRANCH  12  15
ENDBRANCH   1  11
BRANCH   3  22
HETATM   22  O   UNL     1       6.030   6.062  23.954  0.00  0.00    -0.360 OA
HETATM   23  H   UNL     1       6.654   5.408  23.606  0.00  0.00     0.217 HD
ENDBRANCH   3  22
BRANCH  10  24
HETATM   24  C   UNL     1       2.939   8.555  18.433  0.00  0.00     0.100 C 
BRANCH  24  25
HETATM   25  C   UNL     1       2.053   7.509  17.789  0.00  0.00    -0.052 A 
HETATM   26  C   UNL     1       1.907   7.480  16.395  0.00  0.00     0.007 A 
HETATM   27  C   UNL     1       0.977   6.628  15.797  0.00  0.00     0.001 A 
HETATM   28  C   UNL     1       0.201   5.775  16.579  0.00  0.00     0.007 A 
HETATM   29  C   UNL     1       0.367   5.742  17.968  0.00  0.00    -0.061 A 
HETATM   30  C   UNL     1       1.295   6.611  18.565  0.00  0.00     0.014 A 
HETATM   31  C   UNL     1      -0.403   4.754  18.795  0.00  0.00     0.048 C 
ENDBRANCH  24  25
ENDBRANCH  10  24
TORSDOF 5
ENDMDL
MODEL 5
REMARK VINA RESULT:    -8.491      4.111      7.968
REMARK INTER + INTRA:         -11.461
REMARK INTER:                 -10.447
REMARK INTRA:                  -1.014
REMARK UNBOUND:                -0.737
REMARK  5 active torsions:
REMARK  status: ('A' for Active; 'I' for Inactive)
REMARK    1  A    between atoms: C_7  and  N_8 
REMARK       I    between atoms: N_8  and  C_10 
REMARK    2  A    between atoms: C_10  and  C_12 
REMARK    3  A    between atoms: C_14  and  O_15 
REMARK    4  A    between atoms: C_22  and  C_23 
REMARK    5  A    between atoms: C_23  and  C_24 
ROOT
HETATM    1  C   UNL     1       4.149   7.757  23.224  0.00  0.00     0.066 A 
HETATM    2  C   UNL     1       3.670   8.098  21.926  0.00  0.00     0.035 A 
HETATM    3  C   UNL     1       5.257   6.902  23.305  0.00  0.00     0.083 A 
HETATM    4  C   UNL     1       5.946   6.458  22.167  0.00  0.00     0.069 A 
HETATM    5  C   UNL     1       5.443   6.826  20.919  0.00  0.00     0.065 A 
HETATM    6  C   UNL     1       4.331   7.641  20.760  0.00  0.00     0.020 A 
HETATM    7  N   UNL     1       5.840   6.491  19.654  0.00  0.00    -0.277 N 
HETATM    8  H   UNL     1       6.602   5.879  19.387  0.00  0.00     0.189 HD
HETATM    9  N   UNL     1       5.090   7.026  18.683  0.00  0.00    -0.178 NA
HETATM   10  C   UNL     1       4.181   7.767  19.340  0.00  0.00     0.071 A 
ENDROOT
BRANCH   1  11
HETATM   11  C   UNL     1       3.314   8.260  24.375  0.00  0.00     0.260 C 
HETATM   12  N   UNL     1       2.539   7.416  25.219  0.00  0.00    -0.318 N 
HETATM   13  C   UNL     1       2.293   6.007  24.909  0.00  0.00     0.159 C 
HETATM   14  O   UNL     1       3.381   9.485  24.525  0.00  0.00    -0.267 OA
BRANCH  12  15
HETATM   15  C   UNL     1       1.933   7.917  26.453  0.00  0.00     0.038 A 
HETATM   16  C   UNL     1       2.692   8.107  27.622  0.00  0.00     0.053 A 
HETATM   17  C   UNL     1       2.126   8.666  28.780  0.00  0.00     0.036 A 
HETATM   18 CL   UNL     1       3.104   8.920  30.180  0.00  0.00    -0.084 Cl
HETATM   19  C   UNL     1       0.788   9.039  28.815  0.00  0.00     0.024 A 
HETATM   20  C   UNL     1       0.017   8.851  27.678  0.00  0.00     0.004 A 
HETATM   21  C   UNL     1       0.584   8.303  26.514  0.00  0.00     0.030 A 
ENDBRANCH  12  15
ENDBRANCH   1  11
BRANCH   3  22
HETATM   22  O   UNL     1       5.733   6.365  24.470  0.00  0.00    -0.360 OA
HETATM   23  H   UNL     1       6.627   6.038  24.291  0.00  0.00     0.217 HD
ENDBRANCH   3  22
BRANCH  10  24
HETATM   24  C   UNL     1       3.148   8.506  18.556  0.00  0.00     0.100 C 
BRANCH  24  25
HETATM   25  C   UNL     1       2.204   7.493  17.941  0.00  0.00    -0.052 A 
HETATM   26  C   UNL     1       2.014   7.469  16.552  0.00  0.00     0.007 A 
HETATM   27  C   UNL     1       1.035   6.652  15.984  0.00  0.00     0.001 A 
HETATM   28  C   UNL     1       0.252   5.829  16.791  0.00  0.00     0.007 A 
HETATM   29  C   UNL     1       0.458   5.791  18.174  0.00  0.00    -0.061 A 
HETATM   30  C   UNL     1       1.437   6.625  18.741  0.00  0.00     0.014 A 
HETATM   31  C   UNL     1      -0.322   4.834  19.026  0.00  0.00     0.048 C 
ENDBRANCH  24  25
ENDBRANCH  10  24
TORSDOF 5
ENDMDL
MODEL 6
REMARK VINA RESULT:    -8.489      5.142      7.989
REMARK INTER + INTRA:         -11.458
REMARK INTER:                 -10.403
REMARK INTRA:                  -1.055
REMARK UNBOUND:                -0.737
REMARK  5 active torsions:
REMARK  status: ('A' for Active; 'I' for Inactive)
REMARK    1  A    between atoms: C_7  and  N_8 
REMARK       I    between atoms: N_8  and  C_10 
REMARK    2  A    between atoms: C_10  and  C_12 
REMARK    3  A    between atoms: C_14  and  O_15 
REMARK    4  A    between atoms: C_22  and  C_23 
REMARK    5  A    between atoms: C_23  and  C_24 
ROOT
HETATM    1  C   UNL     1       4.424   7.023  22.934  0.00  0.00     0.066 A 
HETATM    2  C   UNL     1       3.761   7.555  21.791  0.00  0.00     0.035 A 
HETATM    3  C   UNL     1       5.707   6.489  22.753  0.00  0.00     0.083 A 
HETATM    4  C   UNL     1       6.378   6.549  21.523  0.00  0.00     0.069 A 
HETATM    5  C   UNL     1       5.690   7.087  20.435  0.00  0.00     0.065 A 
HETATM    6  C   UNL     1       4.404   7.602  20.529  0.00  0.00     0.020 A 
HETATM    7  N   UNL     1       6.039   7.206  19.118  0.00  0.00    -0.277 N 
HETATM    8  H   UNL     1       6.898   6.901  18.676  0.00  0.00     0.189 HD
HETATM    9  N   UNL     1       5.097   7.764  18.347  0.00  0.00    -0.178 NA
HETATM   10  C   UNL     1       4.100   8.049  19.203  0.00  0.00     0.071 A 
ENDROOT
BRANCH   1  11
HETATM   11  C   UNL     1       3.600   6.977  24.197  0.00  0.00     0.260 C 
HETATM   12  N   UNL     1       3.102   5.776  24.775  0.00  0.00    -0.318 N 
HETATM   13  C   UNL     1       3.143   4.492  24.074  0.00  0.00     0.159 C 
HETATM   14  O   UNL     1       3.411   8.093  24.694  0.00  0.00    -0.267 OA
BRANCH  12  15
HETATM   15  C   UNL     1       2.509   5.759  26.112  0.00  0.00     0.038 A 
HETATM   16  C   UNL     1       1.119   5.654  26.301  0.00  0.00     0.053 A 
HETATM   17  C   UNL     1       0.560   5.553  27.586  0.00  0.00     0.036 A 
HETATM   18 CL   UNL     1      -1.148   5.384  27.771  0.00  0.00    -0.084 Cl
HETATM   19  C   UNL     1       1.363   5.569  28.720  0.00  0.00     0.024 A 
HETATM   20  C   UNL     1       2.735   5.683  28.560  0.00  0.00     0.004 A 
HETATM   21  C   UNL     1       3.299   5.771  27.274  0.00  0.00     0.030 A 
ENDBRANCH  12  15
ENDBRANCH   1  11
BRANCH   3  22
HETATM   22  O   UNL     1       6.403   5.809  23.716  0.00  0.00    -0.360 OA
HETATM   23  H   UNL     1       6.028   4.918  23.764  0.00  0.00     0.217 HD
ENDBRANCH   3  22
BRANCH  10  24
HETATM   24  C   UNL     1       2.852   8.676  18.674  0.00  0.00     0.100 C 
BRANCH  24  25
HETATM   25  C   UNL     1       2.040   7.604  17.977  0.00  0.00    -0.052 A 
HETATM   26  C   UNL     1       1.952   7.594  16.577  0.00  0.00     0.007 A 
HETATM   27  C   UNL     1       1.086   6.713  15.928  0.00  0.00     0.001 A 
HETATM   28  C   UNL     1       0.318   5.813  16.663  0.00  0.00     0.007 A 
HETATM   29  C   UNL     1       0.429   5.762  18.057  0.00  0.00    -0.061 A 
HETATM   30  C   UNL     1       1.293   6.659  18.706  0.00  0.00     0.014 A 
HETATM   31  C   UNL     1      -0.329   4.726  18.835  0.00  0.00     0.048 C 
ENDBRANCH  24  25
ENDBRANCH  10  24
TORSDOF 5
ENDMDL
MODEL 7
REMARK VINA RESULT:    -8.371      1.570      2.144
REMARK INTER + INTRA:         -11.310
REMARK INTER:                 -10.427
REMARK INTRA:                  -0.883
REMARK UNBOUND:                -0.737
REMARK  5 active torsions:
REMARK  status: ('A' for Active; 'I' for Inactive)
REMARK    1  A    between atoms: C_7  and  N_8 
REMARK       I    between atoms: N_8  and  C_10 
REMARK    2  A    between atoms: C_10  and  C_12 
REMARK    3  A    between atoms: C_14  and  O_15 
REMARK    4  A    between atoms: C_22  and  C_23 
REMARK    5  A    between atoms: C_23  and  C_24 
ROOT
HETATM    1  C   UNL     1       1.739   8.217  26.484  0.00  0.00     0.066 A 
HETATM    2  C   UNL     1       0.604   8.896  25.955  0.00  0.00     0.035 A 
HETATM    3  C   UNL     1       1.936   8.257  27.871  0.00  0.00     0.083 A 
HETATM    4  C   UNL     1       1.014   8.857  28.741  0.00  0.00     0.069 A 
HETATM    5  C   UNL     1      -0.087   9.501  28.177  0.00  0.00     0.065 A 
HETATM    6  C   UNL     1      -0.329   9.533  26.810  0.00  0.00     0.020 A 
HETATM    7  N   UNL     1      -1.094  10.228  28.747  0.00  0.00    -0.277 N 
HETATM    8  H   UNL     1      -1.221  10.447  29.728  0.00  0.00     0.189 HD
HETATM    9  N   UNL     1      -1.979  10.723  27.873  0.00  0.00    -0.178 NA
HETATM   10  C   UNL     1      -1.548  10.274  26.681  0.00  0.00     0.071 A 
ENDROOT
BRANCH   1  11
HETATM   11  C   UNL     1       2.681   7.637  25.458  0.00  0.00     0.260 C 
HETATM   12  N   UNL     1       2.793   6.245  25.182  0.00  0.00    -0.318 N 
HETATM   13  C   UNL     1       2.174   5.225  26.030  0.00  0.00     0.159 C 
HETATM   14  O   UNL     1       3.341   8.496  24.863  0.00  0.00    -0.267 OA
BRANCH  12  15
HETATM   15  C   UNL     1       3.545   5.751  24.029  0.00  0.00     0.038 A 
HETATM   16  C   UNL     1       3.077   5.926  22.714  0.00  0.00     0.053 A 
HETATM   17  C   UNL     1       3.842   5.525  21.606  0.00  0.00     0.036 A 
HETATM   18 CL   UNL     1       3.247   5.796  20.007  0.00  0.00    -0.084 Cl
HETATM   19  C   UNL     1       5.084   4.928  21.770  0.00  0.00     0.024 A 
HETATM   20  C   UNL     1       5.563   4.734  23.057  0.00  0.00     0.004 A 
HETATM   21  C   UNL     1       4.805   5.146  24.169  0.00  0.00     0.030 A 
ENDBRANCH  12  15
ENDBRANCH   1  11
BRANCH   3  22
HETATM   22  O   UNL     1       3.054   7.788  28.505  0.00  0.00    -0.360 OA
HETATM   23  H   UNL     1       3.811   7.984  27.934  0.00  0.00     0.217 HD
ENDBRANCH   3  22
BRANCH  10  24
HETATM   24  C   UNL     1      -2.301  10.657  25.450  0.00  0.00     0.100 C 
BRANCH  24  25
HETATM   25  C   UNL     1      -1.451  11.627  24.655  0.00  0.00    -0.052 A 
HETATM   26  C   UNL     1      -0.499  12.421  25.311  0.00  0.00     0.007 A 
HETATM   27  C   UNL     1       0.180  13.428  24.623  0.00  0.00     0.001 A 
HETATM   28  C   UNL     1      -0.060  13.637  23.267  0.00  0.00     0.007 A 
HETATM   29  C   UNL     1      -0.963  12.823  22.574  0.00  0.00    -0.061 A 
HETATM   30  C   UNL     1      -1.652  11.820  23.275  0.00  0.00     0.014 A 
HETATM   31  C   UNL     1      -1.146  12.992  21.095  0.00  0.00     0.048 C 
ENDBRANCH  24  25
ENDBRANCH  10  24
TORSDOF 5
ENDMDL
MODEL 8
REMARK VINA RESULT:    -8.319      3.236      7.936
REMARK INTER + INTRA:         -11.244
REMARK INTER:                 -10.255
REMARK INTRA:                  -0.989
REMARK UNBOUND:                -0.737
REMARK  5 active torsions:
REMARK  status: ('A' for Active; 'I' for Inactive)
REMARK    1  A    between atoms: C_7  and  N_8 
REMARK       I    between atoms: N_8  and  C_10 
REMARK    2  A    between atoms: C_10  and  C_12 
REMARK    3  A    between atoms: C_14  and  O_15 
REMARK    4  A    between atoms: C_22  and  C_23 
REMARK    5  A    between atoms: C_23  and  C_24 
ROOT
HETATM    1  C   UNL     1       3.760   8.143  23.730  0.00  0.00     0.066 A 
HETATM    2  C   UNL     1       4.043   8.284  22.341  0.00  0.00     0.035 A 
HETATM    3  C   UNL     1       4.504   7.203  24.456  0.00  0.00     0.083 A 
HETATM    4  C   UNL     1       5.560   6.479  23.883  0.00  0.00     0.069 A 
HETATM    5  C   UNL     1       5.805   6.657  22.520  0.00  0.00     0.065 A 
HETATM    6  C   UNL     1       5.086   7.544  21.731  0.00  0.00     0.020 A 
HETATM    7  N   UNL     1       6.692   6.048  21.678  0.00  0.00    -0.277 N 
HETATM    8  H   UNL     1       7.357   5.317  21.903  0.00  0.00     0.189 HD
HETATM    9  N   UNL     1       6.624   6.468  20.409  0.00  0.00    -0.178 NA
HETATM   10  C   UNL     1       5.670   7.415  20.428  0.00  0.00     0.071 A 
ENDROOT
BRANCH   1  11
HETATM   11  C   UNL     1       2.584   8.943  24.234  0.00  0.00     0.260 C 
HETATM   12  N   UNL     1       1.401   8.361  24.769  0.00  0.00    -0.318 N 
HETATM   13  C   UNL     1       1.115   6.929  24.666  0.00  0.00     0.159 C 
HETATM   14  O   UNL     1       2.756  10.165  24.152  0.00  0.00    -0.267 OA
BRANCH  12  15
HETATM   15  C   UNL     1       0.391   9.170  25.452  0.00  0.00     0.038 A 
HETATM   16  C   UNL     1      -0.662   9.782  24.749  0.00  0.00     0.053 A 
HETATM   17  C   UNL     1      -1.676  10.488  25.418  0.00  0.00     0.036 A 
HETATM   18 CL   UNL     1      -2.973  11.190  24.520  0.00  0.00    -0.084 Cl
HETATM   19  C   UNL     1      -1.666  10.619  26.801  0.00  0.00     0.024 A 
HETATM   20  C   UNL     1      -0.631  10.034  27.515  0.00  0.00     0.004 A 
HETATM   21  C   UNL     1       0.379   9.315  26.849  0.00  0.00     0.030 A 
ENDBRANCH  12  15
ENDBRANCH   1  11
BRANCH   3  22
HETATM   22  O   UNL     1       4.245   6.847  25.751  0.00  0.00    -0.360 OA
HETATM   23  H   UNL     1       3.372   6.428  25.764  0.00  0.00     0.217 HD
ENDBRANCH   3  22
BRANCH  10  24
HETATM   24  C   UNL     1       5.307   8.101  19.153  0.00  0.00     0.100 C 
BRANCH  24  25
HETATM   25  C   UNL     1       4.025   7.487  18.631  0.00  0.00    -0.052 A 
HETATM   26  C   UNL     1       2.899   8.296  18.417  0.00  0.00     0.007 A 
HETATM   27  C   UNL     1       1.668   7.727  18.088  0.00  0.00     0.001 A 
HETATM   28  C   UNL     1       1.550   6.346  17.940  0.00  0.00     0.007 A 
HETATM   29  C   UNL     1       2.669   5.520  18.091  0.00  0.00    -0.061 A 
HETATM   30  C   UNL     1       3.902   6.098  18.435  0.00  0.00     0.014 A 
HETATM   31  C   UNL     1       2.556   4.046  17.837  0.00  0.00     0.048 C 
ENDBRANCH  24  25
ENDBRANCH  10  24
TORSDOF 5
ENDMDL
MODEL 9
REMARK VINA RESULT:    -8.118      2.718      7.484
REMARK INTER + INTRA:         -10.990
REMARK INTER:                 -10.253
REMARK INTRA:                  -0.737
REMARK UNBOUND:                -0.737
REMARK  5 active torsions:
REMARK  status: ('A' for Active; 'I' for Inactive)
REMARK    1  A    between atoms: C_7  and  N_8 
REMARK       I    between atoms: N_8  and  C_10 
REMARK    2  A    between atoms: C_10  and  C_12 
REMARK    3  A    between atoms: C_14  and  O_15 
REMARK    4  A    between atoms: C_22  and  C_23 
REMARK    5  A    between atoms: C_23  and  C_24 
ROOT
HETATM    1  C   UNL     1       3.080   7.880  24.889  0.00  0.00     0.066 A 
HETATM    2  C   UNL     1       3.473   7.011  23.830  0.00  0.00     0.035 A 
HETATM    3  C   UNL     1       3.562   7.600  26.175  0.00  0.00     0.083 A 
HETATM    4  C   UNL     1       4.475   6.565  26.425  0.00  0.00     0.069 A 
HETATM    5  C   UNL     1       4.837   5.746  25.354  0.00  0.00     0.065 A 
HETATM    6  C   UNL     1       4.373   5.940  24.060  0.00  0.00     0.020 A 
HETATM    7  N   UNL     1       5.627   4.632  25.299  0.00  0.00    -0.277 N 
HETATM    8  H   UNL     1       6.106   4.176  26.067  0.00  0.00     0.189 HD
HETATM    9  N   UNL     1       5.728   4.088  24.081  0.00  0.00    -0.178 NA
HETATM   10  C   UNL     1       4.996   4.900  23.298  0.00  0.00     0.071 A 
ENDROOT
BRANCH   1  11
HETATM   11  C   UNL     1       2.071   8.937  24.516  0.00  0.00     0.260 C 
HETATM   12  N   UNL     1       0.710   8.915  24.932  0.00  0.00    -0.318 N 
HETATM   13  C   UNL     1       0.102   7.744  25.568  0.00  0.00     0.159 C 
HETATM   14  O   UNL     1       2.548   9.841  23.821  0.00  0.00    -0.267 OA
BRANCH  12  15
HETATM   15  C   UNL     1      -0.168  10.070  24.741  0.00  0.00     0.038 A 
HETATM   16  C   UNL     1       0.344  11.376  24.649  0.00  0.00     0.053 A 
HETATM   17  C   UNL     1      -0.493  12.473  24.382  0.00  0.00     0.036 A 
HETATM   18 CL   UNL     1       0.182  14.056  24.235  0.00  0.00    -0.084 Cl
HETATM   19  C   UNL     1      -1.862  12.306  24.212  0.00  0.00     0.024 A 
HETATM   20  C   UNL     1      -2.391  11.028  24.310  0.00  0.00     0.004 A 
HETATM   21  C   UNL     1      -1.554   9.926  24.565  0.00  0.00     0.030 A 
ENDBRANCH  12  15
ENDBRANCH   1  11
BRANCH   3  22
HETATM   22  O   UNL     1       3.153   8.246  27.309  0.00  0.00    -0.360 OA
HETATM   23  H   UNL     1       3.853   8.868  27.553  0.00  0.00     0.217 HD
ENDBRANCH   3  22
BRANCH  10  24
HETATM   24  C   UNL     1       4.867   4.579  21.845  0.00  0.00     0.100 C 
BRANCH  24  25
HETATM   25  C   UNL     1       5.177   5.832  21.052  0.00  0.00    -0.052 A 
HETATM   26  C   UNL     1       6.473   6.367  21.071  0.00  0.00     0.007 A 
HETATM   27  C   UNL     1       6.739   7.602  20.477  0.00  0.00     0.001 A 
HETATM   28  C   UNL     1       5.723   8.305  19.832  0.00  0.00     0.007 A 
HETATM   29  C   UNL     1       4.434   7.767  19.749  0.00  0.00    -0.061 A 
HETATM   30  C   UNL     1       4.170   6.531  20.359  0.00  0.00     0.014 A 
HETATM   31  C   UNL     1       3.369   8.484  18.972  0.00  0.00     0.048 C 
ENDBRANCH  24  25
ENDBRANCH  10  24
TORSDOF 5
ENDMDL
