MODEL 1
REMARK VINA RESULT:    -8.277      0.000      0.000
REMARK INTER + INTRA:         -12.663
REMARK INTER:                 -11.356
REMARK INTRA:                  -1.307
REMARK UNBOUND:                -1.241
REMARK  7 active torsions:
REMARK  status: ('A' for Active; 'I' for Inactive)
REMARK    1  A    between atoms: C_2  and  C_4 
REMARK    2  A    between atoms: C_4  and  N_5 
REMARK       I    between atoms: N_5  and  C_7 
REMARK    3  A    between atoms: C_7  and  C_9 
REMARK    4  A    between atoms: C_16  and  C_20 
REMARK    5  A    between atoms: C_17  and  O_19 
REMARK       I    between atoms: C_20  and  N_22 
REMARK    6  A    between atoms: N_22  and  C_24 
REMARK    7  A    between atoms: C_27  and  N_30 
ROOT
HETATM    1  C   UNL     1       0.602  16.809  20.753  0.00  0.00     0.157 A 
HETATM    2  N   UNL     1      -0.037  17.717  19.988  0.00  0.00    -0.168 NA
HETATM    3  N   UNL     1      -1.323  17.328  19.999  0.00  0.00    -0.277 N 
HETATM    4  H   UNL     1      -1.997  17.874  19.476  0.00  0.00     0.189 HD
HETATM    5  C   UNL     1      -0.314  15.815  21.210  0.00  0.00     0.029 A 
HETATM    6  C   UNL     1      -1.558  16.208  20.744  0.00  0.00     0.065 A 
HETATM    7  C   UNL     1      -0.210  14.644  21.984  0.00  0.00     0.036 C 
HETATM    8  C   UNL     1      -1.363  13.967  22.378  0.00  0.00     0.066 C 
HETATM    9  C   UNL     1      -2.595  14.361  21.816  0.00  0.00     0.083 C 
HETATM   10  C   UNL     1      -2.727  15.496  21.006  0.00  0.00     0.069 C 
ENDROOT
BRANCH   8  11
HETATM   11  C   UNL     1      -1.296  12.777  23.272  0.00  0.00     0.260 C 
HETATM   12  O   UNL     1      -1.607  11.731  22.694  0.00  0.00    -0.267 OA
HETATM   13  N   UNL     1      -0.979  12.863  24.659  0.00  0.00    -0.318 N 
HETATM   14  C   UNL     1      -0.930  14.106  25.444  0.00  0.00     0.159 C 
BRANCH  13  15
HETATM   15  C   UNL     1      -0.973  11.646  25.450  0.00  0.00     0.037 A 
HETATM   16  C   UNL     1      -2.006  11.345  26.337  0.00  0.00     0.032 A 
HETATM   17  C   UNL     1      -1.935  10.231  27.184  0.00  0.00     0.031 A 
HETATM   18  C   UNL     1      -0.842   9.356  27.181  0.00  0.00     0.030 A 
HETATM   19  C   UNL     1       0.136   9.601  26.215  0.00  0.00     0.031 A 
HETATM   20  C   UNL     1       0.075  10.719  25.366  0.00  0.00     0.032 A 
BRANCH  18  21
HETATM   21  N   UNL     1      -0.746   8.332  28.096  0.00  0.00    -0.377 N 
HETATM   22  C   UNL     1      -0.944   6.914  27.770  0.00  0.00     0.149 C 
HETATM   23  C   UNL     1       0.302   6.103  28.155  0.00  0.00     0.187 C 
HETATM   24  O   UNL     1       0.643   6.289  29.539  0.00  0.00    -0.388 OA
HETATM   25  C   UNL     1       0.920   7.675  29.796  0.00  0.00     0.187 C 
HETATM   26  C   UNL     1      -0.284   8.577  29.473  0.00  0.00     0.149 C 
ENDBRANCH  18  21
ENDBRANCH  13  15
ENDBRANCH   8  11
BRANCH   9  27
HETATM   27  O   UNL     1      -3.750  13.631  21.959  0.00  0.00    -0.360 OA
HETATM   28  H   UNL     1      -4.428  14.244  22.328  0.00  0.00     0.217 HD
ENDBRANCH   9  27
BRANCH   1  29
HETATM   29  C   UNL     1       2.051  16.831  21.073  0.00  0.00     0.274 C 
HETATM   30  N   UNL     1       2.899  15.866  20.504  0.00  0.00    -0.351 N 
HETATM   31  C   UNL     1       2.463  14.899  19.508  0.00  0.00     0.153 C 
HETATM   32  O   UNL     1       2.503  17.713  21.801  0.00  0.00    -0.266 OA
BRANCH  30  33
HETATM   33  C   UNL     1       4.301  15.831  20.918  0.00  0.00     0.129 C 
BRANCH  33  34
HETATM   34  C   UNL     1       4.700  14.623  21.790  0.00  0.00    -0.005 C 
HETATM   35  C   UNL     1       6.127  14.724  22.327  0.00  0.00     0.011 C 
HETATM   36  C   UNL     1       3.718  14.372  22.933  0.00  0.00     0.011 C 
ENDBRANCH  33  34
ENDBRANCH  30  33
ENDBRANCH   1  29
TORSDOF 7
ENDMDL
MODEL 2
REMARK VINA RESULT:    -8.052      4.413      7.151
REMARK INTER + INTRA:         -12.352
REMARK INTER:                 -11.044
REMARK INTRA:                  -1.308
REMARK UNBOUND:                -1.241
REMARK  7 active torsions:
REMARK  status: ('A' for Active; 'I' for Inactive)
REMARK    1  A    between atoms: C_2  and  C_4 
REMARK    2  A    between atoms: C_4  and  N_5 
REMARK       I    between atoms: N_5  and  C_7 
REMARK    3  A    between atoms: C_7  and  C_9 
REMARK    4  A    between atoms: C_16  and  C_20 
REMARK    5  A    between atoms: C_17  and  O_19 
REMARK       I    between atoms: C_20  and  N_22 
REMARK    6  A    between atoms: N_22  and  C_24 
REMARK    7  A    between atoms: C_27  and  N_30 
ROOT
HETATM    1  C   UNL     1      -3.324  12.628  24.273  0.00  0.00     0.157 A 
HETATM    2  N   UNL     1      -4.179  13.271  25.093  0.00  0.00    -0.168 NA
HETATM    3  N   UNL     1      -3.977  12.717  26.300  0.00  0.00    -0.277 N 
HETATM    4  H   UNL     1      -4.526  13.051  27.083  0.00  0.00     0.189 HD
HETATM    5  C   UNL     1      -2.610  11.624  24.993  0.00  0.00     0.029 A 
HETATM    6  C   UNL     1      -3.021  11.742  26.310  0.00  0.00     0.065 A 
HETATM    7  C   UNL     1      -1.648  10.652  24.659  0.00  0.00     0.036 C 
HETATM    8  C   UNL     1      -1.031   9.911  25.665  0.00  0.00     0.066 C 
HETATM    9  C   UNL     1      -1.538  10.013  26.977  0.00  0.00     0.083 C 
HETATM   10  C   UNL     1      -2.525  10.939  27.335  0.00  0.00     0.069 C 
ENDROOT
BRANCH   8  11
HETATM   11  C   UNL     1       0.056   8.939  25.357  0.00  0.00     0.260 C 
HETATM   12  O   UNL     1      -0.314   7.766  25.461  0.00  0.00    -0.267 OA
HETATM   13  N   UNL     1       1.390   9.336  25.050  0.00  0.00    -0.318 N 
HETATM   14  C   UNL     1       1.941  10.687  25.241  0.00  0.00     0.159 C 
BRANCH  13  15
HETATM   15  C   UNL     1       2.383   8.308  24.798  0.00  0.00     0.037 A 
HETATM   16  C   UNL     1       3.276   7.893  25.785  0.00  0.00     0.032 A 
HETATM   17  C   UNL     1       4.307   6.989  25.500  0.00  0.00     0.031 A 
HETATM   18  C   UNL     1       4.493   6.442  24.225  0.00  0.00     0.030 A 
HETATM   19  C   UNL     1       3.531   6.775  23.270  0.00  0.00     0.031 A 
HETATM   20  C   UNL     1       2.496   7.686  23.546  0.00  0.00     0.032 A 
BRANCH  18  21
HETATM   21  N   UNL     1       5.576   5.641  23.943  0.00  0.00    -0.377 N 
HETATM   22  C   UNL     1       5.670   4.222  24.309  0.00  0.00     0.149 C 
HETATM   23  C   UNL     1       5.914   3.367  23.057  0.00  0.00     0.187 C 
HETATM   24  O   UNL     1       7.078   3.810  22.338  0.00  0.00    -0.388 OA
HETATM   25  C   UNL     1       6.907   5.173  21.917  0.00  0.00     0.187 C 
HETATM   26  C   UNL     1       6.688   6.125  23.106  0.00  0.00     0.149 C 
ENDBRANCH  18  21
ENDBRANCH  13  15
ENDBRANCH   8  11
BRANCH   9  27
HETATM   27  O   UNL     1      -1.155   9.171  27.994  0.00  0.00    -0.360 OA
HETATM   28  H   UNL     1      -1.446   9.594  28.836  0.00  0.00     0.217 HD
ENDBRANCH   9  27
BRANCH   1  29
HETATM   29  C   UNL     1      -3.151  12.912  22.827  0.00  0.00     0.274 C 
HETATM   30  N   UNL     1      -2.452  14.063  22.427  0.00  0.00    -0.351 N 
HETATM   31  C   UNL     1      -1.769  14.952  23.355  0.00  0.00     0.153 C 
HETATM   32  O   UNL     1      -3.588  12.121  21.993  0.00  0.00    -0.266 OA
BRANCH  30  33
HETATM   33  C   UNL     1      -2.391  14.389  21.003  0.00  0.00     0.129 C 
BRANCH  33  34
HETATM   34  C   UNL     1      -3.462  15.381  20.507  0.00  0.00    -0.005 C 
HETATM   35  C   UNL     1      -2.862  16.661  19.927  0.00  0.00     0.011 C 
HETATM   36  C   UNL     1      -4.432  14.749  19.509  0.00  0.00     0.011 C 
ENDBRANCH  33  34
ENDBRANCH  30  33
ENDBRANCH   1  29
TORSDOF 7
ENDMDL
MODEL 3
REMARK VINA RESULT:    -7.489      1.462      2.064
REMARK INTER + INTRA:         -11.576
REMARK INTER:                 -10.252
REMARK INTRA:                  -1.324
REMARK UNBOUND:                -1.241
REMARK  7 active torsions:
REMARK  status: ('A' for Active; 'I' for Inactive)
REMARK    1  A    between atoms: C_2  and  C_4 
REMARK    2  A    between atoms: C_4  and  N_5 
REMARK       I    between atoms: N_5  and  C_7 
REMARK    3  A    between atoms: C_7  and  C_9 
REMARK    4  A    between atoms: C_16  and  C_20 
REMARK    5  A    between atoms: C_17  and  O_19 
REMARK       I    between atoms: C_20  and  N_22 
REMARK    6  A    between atoms: N_22  and  C_24 
REMARK    7  A    between atoms: C_27  and  N_30 
ROOT
HETATM    1  C   UNL     1      -0.253  15.640  21.527  0.00  0.00     0.157 A 
HETATM    2  N   UNL     1      -1.101  16.258  20.680  0.00  0.00    -0.168 NA
HETATM    3  N   UNL     1      -2.124  15.401  20.533  0.00  0.00    -0.277 N 
HETATM    4  H   UNL     1      -2.890  15.663  19.926  0.00  0.00     0.189 HD
HETATM    5  C   UNL     1      -0.755  14.350  21.874  0.00  0.00     0.029 A 
HETATM    6  C   UNL     1      -1.989  14.248  21.252  0.00  0.00     0.065 A 
HETATM    7  C   UNL     1      -0.294  13.281  22.664  0.00  0.00     0.036 C 
HETATM    8  C   UNL     1      -1.128  12.194  22.917  0.00  0.00     0.066 C 
HETATM    9  C   UNL     1      -2.340  12.101  22.201  0.00  0.00     0.083 C 
HETATM   10  C   UNL     1      -2.809  13.127  21.372  0.00  0.00     0.069 C 
ENDROOT
BRANCH   8  11
HETATM   11  C   UNL     1      -0.709  11.087  23.822  0.00  0.00     0.260 C 
HETATM   12  O   UNL     1      -0.374  10.071  23.206  0.00  0.00    -0.267 OA
HETATM   13  N   UNL     1      -0.764  11.182  25.243  0.00  0.00    -0.318 N 
HETATM   14  C   UNL     1      -1.460  12.235  25.998  0.00  0.00     0.159 C 
BRANCH  13  15
HETATM   15  C   UNL     1      -0.363  10.034  26.035  0.00  0.00     0.037 A 
HETATM   16  C   UNL     1      -1.296   9.248  26.711  0.00  0.00     0.032 A 
HETATM   17  C   UNL     1      -0.892   8.217  27.568  0.00  0.00     0.031 A 
HETATM   18  C   UNL     1       0.455   7.906  27.785  0.00  0.00     0.030 A 
HETATM   19  C   UNL     1       1.379   8.622  27.022  0.00  0.00     0.031 A 
HETATM   20  C   UNL     1       0.983   9.663  26.164  0.00  0.00     0.032 A 
BRANCH  18  21
HETATM   21  N   UNL     1       0.829   6.961  28.713  0.00  0.00    -0.377 N 
HETATM   22  C   UNL     1       2.214   6.527  28.937  0.00  0.00     0.149 C 
HETATM   23  C   UNL     1       2.608   6.747  30.405  0.00  0.00     0.187 C 
HETATM   24  O   UNL     1       1.693   6.089  31.297  0.00  0.00    -0.388 OA
HETATM   25  C   UNL     1       0.366   6.607  31.113  0.00  0.00     0.187 C 
HETATM   26  C   UNL     1      -0.141   6.406  29.674  0.00  0.00     0.149 C 
ENDBRANCH  18  21
ENDBRANCH  13  15
ENDBRANCH   8  11
BRANCH   9  27
HETATM   27  O   UNL     1      -3.127  10.973  22.205  0.00  0.00    -0.360 OA
HETATM   28  H   UNL     1      -2.657  10.299  21.661  0.00  0.00     0.217 HD
ENDBRANCH   9  27
BRANCH   1  29
HETATM   29  C   UNL     1       1.023  16.210  22.025  0.00  0.00     0.274 C 
HETATM   30  N   UNL     1       2.220  15.926  21.345  0.00  0.00    -0.351 N 
HETATM   31  C   UNL     1       2.276  15.192  20.090  0.00  0.00     0.153 C 
HETATM   32  O   UNL     1       1.019  16.955  23.003  0.00  0.00    -0.266 OA
BRANCH  30  33
HETATM   33  C   UNL     1       3.480  16.400  21.914  0.00  0.00     0.129 C 
BRANCH  33  34
HETATM   34  C   UNL     1       4.298  15.339  22.677  0.00  0.00    -0.005 C 
HETATM   35  C   UNL     1       3.421  14.279  23.342  0.00  0.00     0.011 C 
HETATM   36  C   UNL     1       5.363  14.677  21.805  0.00  0.00     0.011 C 
ENDBRANCH  33  34
ENDBRANCH  30  33
ENDBRANCH   1  29
TORSDOF 7
ENDMDL
MODEL 4
REMARK VINA RESULT:    -7.285      5.155      8.064
REMARK INTER + INTRA:         -11.294
REMARK INTER:                 -10.361
REMARK INTRA:                  -0.934
REMARK UNBOUND:                -1.241
REMARK  7 active torsions:
REMARK  status: ('A' for Active; 'I' for Inactive)
REMARK    1  A    between atoms: C_2  and  C_4 
REMARK    2  A    between atoms: C_4  and  N_5 
REMARK       I    between atoms: N_5  and  C_7 
REMARK    3  A    between atoms: C_7  and  C_9 
REMARK    4  A    between atoms: C_16  and  C_20 
REMARK    5  A    between atoms: C_17  and  O_19 
REMARK       I    between atoms: C_20  and  N_22 
REMARK    6  A    between atoms: N_22  and  C_24 
REMARK    7  A    between atoms: C_27  and  N_30 
ROOT
HETATM    1  C   UNL     1      -2.641  11.442  24.244  0.00  0.00     0.157 A 
HETATM    2  N   UNL     1      -3.568  11.849  25.134  0.00  0.00    -0.168 NA
HETATM    3  N   UNL     1      -3.185  11.302  26.300  0.00  0.00    -0.277 N 
HETATM    4  H   UNL     1      -3.749  11.477  27.123  0.00  0.00     0.189 HD
HETATM    5  C   UNL     1      -1.690  10.588  24.877  0.00  0.00     0.029 A 
HETATM    6  C   UNL     1      -2.044  10.558  26.215  0.00  0.00     0.065 A 
HETATM    7  C   UNL     1      -0.562   9.862  24.449  0.00  0.00     0.036 C 
HETATM    8  C   UNL     1       0.254   9.231  25.386  0.00  0.00     0.066 C 
HETATM    9  C   UNL     1      -0.190   9.165  26.723  0.00  0.00     0.083 C 
HETATM   10  C   UNL     1      -1.332   9.839  27.174  0.00  0.00     0.069 C 
ENDROOT
BRANCH   8  11
HETATM   11  C   UNL     1       1.505   8.531  24.979  0.00  0.00     0.260 C 
HETATM   12  O   UNL     1       2.518   9.199  25.203  0.00  0.00    -0.267 OA
HETATM   13  N   UNL     1       1.509   7.260  24.335  0.00  0.00    -0.318 N 
HETATM   14  C   UNL     1       0.330   6.594  23.759  0.00  0.00     0.159 C 
BRANCH  13  15
HETATM   15  C   UNL     1       2.782   6.677  23.949  0.00  0.00     0.037 A 
HETATM   16  C   UNL     1       3.558   7.225  22.928  0.00  0.00     0.032 A 
HETATM   17  C   UNL     1       4.724   6.590  22.481  0.00  0.00     0.031 A 
HETATM   18  C   UNL     1       5.182   5.389  23.035  0.00  0.00     0.030 A 
HETATM   19  C   UNL     1       4.462   4.904  24.128  0.00  0.00     0.031 A 
HETATM   20  C   UNL     1       3.288   5.532  24.579  0.00  0.00     0.032 A 
BRANCH  18  21
HETATM   21  N   UNL     1       6.269   4.729  22.507  0.00  0.00    -0.377 N 
HETATM   22  C   UNL     1       7.023   5.187  21.333  0.00  0.00     0.149 C 
HETATM   23  C   UNL     1       8.505   5.368  21.693  0.00  0.00     0.187 C 
HETATM   24  O   UNL     1       9.061   4.163  22.245  0.00  0.00    -0.388 OA
HETATM   25  C   UNL     1       8.356   3.800  23.443  0.00  0.00     0.187 C 
HETATM   26  C   UNL     1       6.859   3.561  23.186  0.00  0.00     0.149 C 
ENDBRANCH  18  21
ENDBRANCH  13  15
ENDBRANCH   8  11
BRANCH   9  27
HETATM   27  O   UNL     1       0.419   8.384  27.676  0.00  0.00    -0.360 OA
HETATM   28  H   UNL     1      -0.257   7.736  27.984  0.00  0.00     0.217 HD
ENDBRANCH   9  27
BRANCH   1  29
HETATM   29  C   UNL     1      -2.613  11.818  22.808  0.00  0.00     0.274 C 
HETATM   30  N   UNL     1      -2.252  13.125  22.442  0.00  0.00    -0.351 N 
HETATM   31  C   UNL     1      -1.778  14.123  23.389  0.00  0.00     0.153 C 
HETATM   32  O   UNL     1      -2.870  10.973  21.951  0.00  0.00    -0.266 OA
BRANCH  30  33
HETATM   33  C   UNL     1      -2.341  13.510  21.035  0.00  0.00     0.129 C 
BRANCH  33  34
HETATM   34  C   UNL     1      -3.419  14.563  20.707  0.00  0.00    -0.005 C 
HETATM   35  C   UNL     1      -2.836  15.844  20.111  0.00  0.00     0.011 C 
HETATM   36  C   UNL     1      -4.524  14.012  19.807  0.00  0.00     0.011 C 
ENDBRANCH  33  34
ENDBRANCH  30  33
ENDBRANCH   1  29
TORSDOF 7
ENDMDL
MODEL 5
REMARK VINA RESULT:    -7.268      2.663      4.952
REMARK INTER + INTRA:         -11.271
REMARK INTER:                 -10.278
REMARK INTRA:                  -0.993
REMARK UNBOUND:                -1.241
REMARK  7 active torsions:
REMARK  status: ('A' for Active; 'I' for Inactive)
REMARK    1  A    between atoms: C_2  and  C_4 
REMARK    2  A    between atoms: C_4  and  N_5 
REMARK       I    between atoms: N_5  and  C_7 
REMARK    3  A    between atoms: C_7  and  C_9 
REMARK    4  A    between atoms: C_16  and  C_20 
REMARK    5  A    between atoms: C_17  and  O_19 
REMARK       I    between atoms: C_20  and  N_22 
REMARK    6  A    between atoms: N_22  and  C_24 
REMARK    7  A    between atoms: C_27  and  N_30 
ROOT
HETATM    1  C   UNL     1      -2.210  13.186  23.246  0.00  0.00     0.157 A 
HETATM    2  N   UNL     1      -3.290  13.787  22.709  0.00  0.00    -0.168 NA
HETATM    3  N   UNL     1      -4.316  13.408  23.489  0.00  0.00    -0.277 N 
HETATM    4  H   UNL     1      -5.244  13.746  23.264  0.00  0.00     0.189 HD
HETATM    5  C   UNL     1      -2.595  12.383  24.361  0.00  0.00     0.029 A 
HETATM    6  C   UNL     1      -3.956  12.588  24.519  0.00  0.00     0.065 A 
HETATM    7  C   UNL     1      -1.922  11.528  25.254  0.00  0.00     0.036 C 
HETATM    8  C   UNL     1      -2.596  11.002  26.354  0.00  0.00     0.066 C 
HETATM    9  C   UNL     1      -3.994  11.176  26.427  0.00  0.00     0.083 C 
HETATM   10  C   UNL     1      -4.702  11.985  25.530  0.00  0.00     0.069 C 
ENDROOT
BRANCH   8  11
HETATM   11  C   UNL     1      -1.894  10.167  27.369  0.00  0.00     0.260 C 
HETATM   12  O   UNL     1      -2.088  10.559  28.523  0.00  0.00    -0.267 OA
HETATM   13  N   UNL     1      -1.035   9.083  27.024  0.00  0.00    -0.318 N 
HETATM   14  C   UNL     1      -0.523   8.800  25.673  0.00  0.00     0.159 C 
BRANCH  13  15
HETATM   15  C   UNL     1      -0.371   8.353  28.088  0.00  0.00     0.037 A 
HETATM   16  C   UNL     1      -0.858   7.132  28.553  0.00  0.00     0.032 A 
HETATM   17  C   UNL     1      -0.282   6.493  29.659  0.00  0.00     0.031 A 
HETATM   18  C   UNL     1       0.812   7.029  30.347  0.00  0.00     0.030 A 
HETATM   19  C   UNL     1       1.364   8.194  29.810  0.00  0.00     0.031 A 
HETATM   20  C   UNL     1       0.788   8.844  28.705  0.00  0.00     0.032 A 
BRANCH  18  21
HETATM   21  N   UNL     1       1.292   6.438  31.495  0.00  0.00    -0.377 N 
HETATM   22  C   UNL     1       2.640   6.657  32.034  0.00  0.00     0.149 C 
HETATM   23  C   UNL     1       2.556   7.183  33.474  0.00  0.00     0.187 C 
HETATM   24  O   UNL     1       1.785   6.303  34.309  0.00  0.00    -0.388 OA
HETATM   25  C   UNL     1       0.447   6.189  33.801  0.00  0.00     0.187 C 
HETATM   26  C   UNL     1       0.415   5.636  32.366  0.00  0.00     0.149 C 
ENDBRANCH  18  21
ENDBRANCH  13  15
ENDBRANCH   8  11
BRANCH   9  27
HETATM   27  O   UNL     1      -4.783  10.518  27.340  0.00  0.00    -0.360 OA
HETATM   28  H   UNL     1      -5.717  10.752  27.127  0.00  0.00     0.217 HD
ENDBRANCH   9  27
BRANCH   1  29
HETATM   29  C   UNL     1      -0.819  13.327  22.750  0.00  0.00     0.274 C 
HETATM   30  N   UNL     1      -0.033  14.406  23.190  0.00  0.00    -0.351 N 
HETATM   31  C   UNL     1      -0.462  15.347  24.214  0.00  0.00     0.153 C 
HETATM   32  O   UNL     1      -0.353  12.481  21.989  0.00  0.00    -0.266 OA
BRANCH  30  33
HETATM   33  C   UNL     1       1.293  14.595  22.605  0.00  0.00     0.129 C 
BRANCH  33  34
HETATM   34  C   UNL     1       2.469  14.513  23.599  0.00  0.00    -0.005 C 
HETATM   35  C   UNL     1       2.443  13.242  24.446  0.00  0.00     0.011 C 
HETATM   36  C   UNL     1       3.827  14.670  22.917  0.00  0.00     0.011 C 
ENDBRANCH  33  34
ENDBRANCH  30  33
ENDBRANCH   1  29
TORSDOF 7
ENDMDL
MODEL 6
REMARK VINA RESULT:    -7.094      3.628      9.628
REMARK INTER + INTRA:         -11.031
REMARK INTER:                  -9.896
REMARK INTRA:                  -1.135
REMARK UNBOUND:                -1.241
REMARK  7 active torsions:
REMARK  status: ('A' for Active; 'I' for Inactive)
REMARK    1  A    between atoms: C_2  and  C_4 
REMARK    2  A    between atoms: C_4  and  N_5 
REMARK       I    between atoms: N_5  and  C_7 
REMARK    3  A    between atoms: C_7  and  C_9 
REMARK    4  A    between atoms: C_16  and  C_20 
REMARK    5  A    between atoms: C_17  and  O_19 
REMARK       I    between atoms: C_20  and  N_22 
REMARK    6  A    between atoms: N_22  and  C_24 
REMARK    7  A    between atoms: C_27  and  N_30 
ROOT
HETATM    1  C   UNL     1       0.984   5.762  25.401  0.00  0.00     0.157 A 
HETATM    2  N   UNL     1       0.658   4.930  26.411  0.00  0.00    -0.168 NA
HETATM    3  N   UNL     1      -0.073   5.681  27.251  0.00  0.00    -0.277 N 
HETATM    4  H   UNL     1      -0.428   5.252  28.096  0.00  0.00     0.189 HD
HETATM    5  C   UNL     1       0.472   7.070  25.655  0.00  0.00     0.029 A 
HETATM    6  C   UNL     1      -0.247   6.970  26.834  0.00  0.00     0.065 A 
HETATM    7  C   UNL     1       0.532   8.310  24.991  0.00  0.00     0.036 C 
HETATM    8  C   UNL     1      -0.229   9.382  25.452  0.00  0.00     0.066 C 
HETATM    9  C   UNL     1      -0.881   9.253  26.697  0.00  0.00     0.083 C 
HETATM   10  C   UNL     1      -0.924   8.046  27.405  0.00  0.00     0.069 C 
ENDROOT
BRANCH   8  11
HETATM   11  C   UNL     1      -0.260  10.681  24.724  0.00  0.00     0.260 C 
HETATM   12  O   UNL     1       0.745  11.367  24.932  0.00  0.00    -0.267 OA
HETATM   13  N   UNL     1      -1.370  11.104  23.936  0.00  0.00    -0.318 N 
HETATM   14  C   UNL     1      -2.701  10.474  23.934  0.00  0.00     0.159 C 
BRANCH  13  15
HETATM   15  C   UNL     1      -1.315  12.404  23.293  0.00  0.00     0.037 A 
HETATM   16  C   UNL     1      -0.743  12.574  22.033  0.00  0.00     0.032 A 
HETATM   17  C   UNL     1      -0.585  13.848  21.472  0.00  0.00     0.031 A 
HETATM   18  C   UNL     1      -1.001  15.012  22.128  0.00  0.00     0.030 A 
HETATM   19  C   UNL     1      -1.672  14.826  23.338  0.00  0.00     0.031 A 
HETATM   20  C   UNL     1      -1.829  13.553  23.911  0.00  0.00     0.032 A 
BRANCH  18  21
HETATM   21  N   UNL     1      -0.738  16.258  21.605  0.00  0.00    -0.377 N 
HETATM   22  C   UNL     1       0.556  16.943  21.716  0.00  0.00     0.149 C 
HETATM   23  C   UNL     1       1.093  17.289  20.320  0.00  0.00     0.187 C 
HETATM   24  O   UNL     1       0.143  18.064  19.569  0.00  0.00    -0.388 OA
HETATM   25  C   UNL     1      -1.075  17.322  19.403  0.00  0.00     0.187 C 
HETATM   26  C   UNL     1      -1.718  16.951  20.750  0.00  0.00     0.149 C 
ENDBRANCH  18  21
ENDBRANCH  13  15
ENDBRANCH   8  11
BRANCH   9  27
HETATM   27  O   UNL     1      -1.468  10.312  27.346  0.00  0.00    -0.360 OA
HETATM   28  H   UNL     1      -2.439  10.141  27.345  0.00  0.00     0.217 HD
ENDBRANCH   9  27
BRANCH   1  29
HETATM   29  C   UNL     1       1.769   5.382  24.201  0.00  0.00     0.274 C 
HETATM   30  N   UNL     1       3.139   5.688  24.144  0.00  0.00    -0.351 N 
HETATM   31  C   UNL     1       3.881   6.259  25.258  0.00  0.00     0.153 C 
HETATM   32  O   UNL     1       1.224   4.771  23.284  0.00  0.00    -0.266 OA
BRANCH  30  33
HETATM   33  C   UNL     1       3.871   5.410  22.910  0.00  0.00     0.129 C 
BRANCH  33  34
HETATM   34  C   UNL     1       5.110   6.294  22.666  0.00  0.00    -0.005 C 
HETATM   35  C   UNL     1       6.417   5.502  22.680  0.00  0.00     0.011 C 
HETATM   36  C   UNL     1       5.002   7.119  21.384  0.00  0.00     0.011 C 
ENDBRANCH  33  34
ENDBRANCH  30  33
ENDBRANCH   1  29
TORSDOF 7
ENDMDL
MODEL 7
REMARK VINA RESULT:    -7.080      5.992     10.091
REMARK INTER + INTRA:         -11.011
REMARK INTER:                  -9.915
REMARK INTRA:                  -1.096
REMARK UNBOUND:                -1.241
REMARK  7 active torsions:
REMARK  status: ('A' for Active; 'I' for Inactive)
REMARK    1  A    between atoms: C_2  and  C_4 
REMARK    2  A    between atoms: C_4  and  N_5 
REMARK       I    between atoms: N_5  and  C_7 
REMARK    3  A    between atoms: C_7  and  C_9 
REMARK    4  A    between atoms: C_16  and  C_20 
REMARK    5  A    between atoms: C_17  and  O_19 
REMARK       I    between atoms: C_20  and  N_22 
REMARK    6  A    between atoms: N_22  and  C_24 
REMARK    7  A    between atoms: C_27  and  N_30 
ROOT
HETATM    1  C   UNL     1       5.345   3.223  22.703  0.00  0.00     0.157 A 
HETATM    2  N   UNL     1       5.722   1.948  22.925  0.00  0.00    -0.168 NA
HETATM    3  N   UNL     1       5.089   1.598  24.058  0.00  0.00    -0.277 N 
HETATM    4  H   UNL     1       5.232   0.664  24.421  0.00  0.00     0.189 HD
HETATM    5  C   UNL     1       4.492   3.677  23.753  0.00  0.00     0.029 A 
HETATM    6  C   UNL     1       4.309   2.586  24.586  0.00  0.00     0.065 A 
HETATM    7  C   UNL     1       3.848   4.890  24.060  0.00  0.00     0.036 C 
HETATM    8  C   UNL     1       2.940   4.947  25.115  0.00  0.00     0.066 C 
HETATM    9  C   UNL     1       2.847   3.835  25.978  0.00  0.00     0.083 C 
HETATM   10  C   UNL     1       3.508   2.627  25.726  0.00  0.00     0.069 C 
ENDROOT
BRANCH   8  11
HETATM   11  C   UNL     1       2.173   6.189  25.413  0.00  0.00     0.260 C 
HETATM   12  O   UNL     1       2.641   6.820  26.365  0.00  0.00    -0.267 OA
HETATM   13  N   UNL     1       0.987   6.556  24.713  0.00  0.00    -0.318 N 
HETATM   14  C   UNL     1       0.224   5.677  23.813  0.00  0.00     0.159 C 
BRANCH  13  15
HETATM   15  C   UNL     1       0.294   7.771  25.102  0.00  0.00     0.037 A 
HETATM   16  C   UNL     1      -0.226   7.939  26.385  0.00  0.00     0.032 A 
HETATM   17  C   UNL     1      -0.995   9.061  26.717  0.00  0.00     0.031 A 
HETATM   18  C   UNL     1      -1.274  10.077  25.795  0.00  0.00     0.030 A 
HETATM   19  C   UNL     1      -0.660   9.957  24.547  0.00  0.00     0.031 A 
HETATM   20  C   UNL     1       0.109   8.832  24.205  0.00  0.00     0.032 A 
BRANCH  18  21
HETATM   21  N   UNL     1      -2.122  11.115  26.113  0.00  0.00    -0.377 N 
HETATM   22  C   UNL     1      -2.445  12.222  25.205  0.00  0.00     0.149 C 
HETATM   23  C   UNL     1      -3.963  12.304  24.988  0.00  0.00     0.187 C 
HETATM   24  O   UNL     1      -4.666  12.417  26.237  0.00  0.00    -0.388 OA
HETATM   25  C   UNL     1      -4.397  11.270  27.059  0.00  0.00     0.187 C 
HETATM   26  C   UNL     1      -2.898  11.114  27.366  0.00  0.00     0.149 C 
ENDBRANCH  18  21
ENDBRANCH  13  15
ENDBRANCH   8  11
BRANCH   9  27
HETATM   27  O   UNL     1       2.157   3.866  27.166  0.00  0.00    -0.360 OA
HETATM   28  H   UNL     1       1.830   4.789  27.279  0.00  0.00     0.217 HD
ENDBRANCH   9  27
BRANCH   1  29
HETATM   29  C   UNL     1       5.761   4.046  21.540  0.00  0.00     0.274 C 
HETATM   30  N   UNL     1       6.865   4.906  21.660  0.00  0.00    -0.351 N 
HETATM   31  C   UNL     1       7.719   4.958  22.837  0.00  0.00     0.153 C 
HETATM   32  O   UNL     1       5.161   3.940  20.471  0.00  0.00    -0.266 OA
BRANCH  30  33
HETATM   33  C   UNL     1       7.190   5.792  20.544  0.00  0.00     0.129 C 
BRANCH  33  34
HETATM   34  C   UNL     1       6.434   7.136  20.527  0.00  0.00    -0.005 C 
HETATM   35  C   UNL     1       5.343   7.190  19.459  0.00  0.00     0.011 C 
HETATM   36  C   UNL     1       5.859   7.504  21.894  0.00  0.00     0.011 C 
ENDBRANCH  33  34
ENDBRANCH  30  33
ENDBRANCH   1  29
TORSDOF 7
ENDMDL
MODEL 8
REMARK VINA RESULT:    -7.069      5.520      8.316
REMARK INTER + INTRA:         -10.996
REMARK INTER:                  -9.886
REMARK INTRA:                  -1.110
REMARK UNBOUND:                -1.241
REMARK  7 active torsions:
REMARK  status: ('A' for Active; 'I' for Inactive)
REMARK    1  A    between atoms: C_2  and  C_4 
REMARK    2  A    between atoms: C_4  and  N_5 
REMARK       I    between atoms: N_5  and  C_7 
REMARK    3  A    between atoms: C_7  and  C_9 
REMARK    4  A    between atoms: C_16  and  C_20 
REMARK    5  A    between atoms: C_17  and  O_19 
REMARK       I    between atoms: C_20  and  N_22 
REMARK    6  A    between atoms: N_22  and  C_24 
REMARK    7  A    between atoms: C_27  and  N_30 
ROOT
HETATM    1  C   UNL     1      -2.388  11.323  24.581  0.00  0.00     0.157 A 
HETATM    2  N   UNL     1      -3.100  11.744  25.645  0.00  0.00    -0.168 NA
HETATM    3  N   UNL     1      -2.649  11.006  26.673  0.00  0.00    -0.277 N 
HETATM    4  H   UNL     1      -3.054  11.156  27.588  0.00  0.00     0.189 HD
HETATM    5  C   UNL     1      -1.507  10.267  24.963  0.00  0.00     0.029 A 
HETATM    6  C   UNL     1      -1.667  10.121  26.331  0.00  0.00     0.065 A 
HETATM    7  C   UNL     1      -0.583   9.446  24.289  0.00  0.00     0.036 C 
HETATM    8  C   UNL     1       0.245   8.591  25.014  0.00  0.00     0.066 C 
HETATM    9  C   UNL     1      -0.009   8.423  26.392  0.00  0.00     0.083 C 
HETATM   10  C   UNL     1      -0.951   9.193  27.085  0.00  0.00     0.069 C 
ENDROOT
BRANCH   8  11
HETATM   11  C   UNL     1       1.295   7.775  24.344  0.00  0.00     0.260 C 
HETATM   12  O   UNL     1       0.825   6.831  23.701  0.00  0.00    -0.267 OA
HETATM   13  N   UNL     1       2.690   8.024  24.498  0.00  0.00    -0.318 N 
HETATM   14  C   UNL     1       3.289   8.915  25.504  0.00  0.00     0.159 C 
BRANCH  13  15
HETATM   15  C   UNL     1       3.634   7.148  23.827  0.00  0.00     0.037 A 
HETATM   16  C   UNL     1       4.253   6.091  24.493  0.00  0.00     0.032 A 
HETATM   17  C   UNL     1       5.250   5.327  23.874  0.00  0.00     0.031 A 
HETATM   18  C   UNL     1       5.671   5.566  22.561  0.00  0.00     0.030 A 
HETATM   19  C   UNL     1       4.971   6.552  21.864  0.00  0.00     0.031 A 
HETATM   20  C   UNL     1       3.973   7.328  22.479  0.00  0.00     0.032 A 
BRANCH  18  21
HETATM   21  N   UNL     1       6.726   4.872  22.013  0.00  0.00    -0.377 N 
HETATM   22  C   UNL     1       6.581   3.665  21.190  0.00  0.00     0.149 C 
HETATM   23  C   UNL     1       7.241   3.876  19.819  0.00  0.00     0.187 C 
HETATM   24  O   UNL     1       8.618   4.265  19.955  0.00  0.00    -0.388 OA
HETATM   25  C   UNL     1       8.711   5.499  20.685  0.00  0.00     0.187 C 
HETATM   26  C   UNL     1       8.105   5.387  22.094  0.00  0.00     0.149 C 
ENDBRANCH  18  21
ENDBRANCH  13  15
ENDBRANCH   8  11
BRANCH   9  27
HETATM   27  O   UNL     1       0.595   7.449  27.150  0.00  0.00    -0.360 OA
HETATM   28  H   UNL     1       0.735   7.836  28.046  0.00  0.00     0.217 HD
ENDBRANCH   9  27
BRANCH   1  29
HETATM   29  C   UNL     1      -2.504  11.867  23.206  0.00  0.00     0.274 C 
HETATM   30  N   UNL     1      -1.739  12.986  22.837  0.00  0.00    -0.351 N 
HETATM   31  C   UNL     1      -0.729  13.587  23.696  0.00  0.00     0.153 C 
HETATM   32  O   UNL     1      -3.239  11.313  22.390  0.00  0.00    -0.266 OA
BRANCH  30  33
HETATM   33  C   UNL     1      -1.950  13.579  21.518  0.00  0.00     0.129 C 
BRANCH  33  34
HETATM   34  C   UNL     1      -2.865  14.820  21.492  0.00  0.00    -0.005 C 
HETATM   35  C   UNL     1      -2.162  16.064  20.949  0.00  0.00     0.011 C 
HETATM   36  C   UNL     1      -4.169  14.573  20.736  0.00  0.00     0.011 C 
ENDBRANCH  33  34
ENDBRANCH  30  33
ENDBRANCH   1  29
TORSDOF 7
ENDMDL
MODEL 9
REMARK VINA RESULT:    -6.971      5.624      8.763
REMARK INTER + INTRA:         -10.860
REMARK INTER:                  -9.620
REMARK INTRA:                  -1.241
REMARK UNBOUND:                -1.241
REMARK  7 active torsions:
REMARK  status: ('A' for Active; 'I' for Inactive)
REMARK    1  A    between atoms: C_2  and  C_4 
REMARK    2  A    between atoms: C_4  and  N_5 
REMARK       I    between atoms: N_5  and  C_7 
REMARK    3  A    between atoms: C_7  and  C_9 
REMARK    4  A    between atoms: C_16  and  C_20 
REMARK    5  A    between atoms: C_17  and  O_19 
REMARK       I    between atoms: C_20  and  N_22 
REMARK    6  A    between atoms: N_22  and  C_24 
REMARK    7  A    between atoms: C_27  and  N_30 
ROOT
HETATM    1  C   UNL     1      -1.561  11.340  26.267  0.00  0.00     0.157 A 
HETATM    2  N   UNL     1      -2.474  11.344  27.259  0.00  0.00    -0.168 NA
HETATM    3  N   UNL     1      -2.120  10.320  28.053  0.00  0.00    -0.277 N 
HETATM    4  H   UNL     1      -2.680  10.131  28.876  0.00  0.00     0.189 HD
HETATM    5  C   UNL     1      -0.650  10.256  26.439  0.00  0.00     0.029 A 
HETATM    6  C   UNL     1      -1.011   9.646  27.629  0.00  0.00     0.065 A 
HETATM    7  C   UNL     1       0.448   9.752  25.716  0.00  0.00     0.036 C 
HETATM    8  C   UNL     1       1.233   8.738  26.261  0.00  0.00     0.066 C 
HETATM    9  C   UNL     1       0.780   8.100  27.435  0.00  0.00     0.083 C 
HETATM   10  C   UNL     1      -0.334   8.548  28.156  0.00  0.00     0.069 C 
ENDROOT
BRANCH   8  11
HETATM   11  C   UNL     1       2.454   8.243  25.566  0.00  0.00     0.260 C 
HETATM   12  O   UNL     1       3.455   8.919  25.825  0.00  0.00    -0.267 OA
HETATM   13  N   UNL     1       2.439   7.153  24.648  0.00  0.00    -0.318 N 
HETATM   14  C   UNL     1       1.230   6.547  24.068  0.00  0.00     0.159 C 
BRANCH  13  15
HETATM   15  C   UNL     1       3.679   6.770  23.998  0.00  0.00     0.037 A 
HETATM   16  C   UNL     1       4.053   7.299  22.763  0.00  0.00     0.032 A 
HETATM   17  C   UNL     1       5.189   6.836  22.088  0.00  0.00     0.031 A 
HETATM   18  C   UNL     1       6.016   5.836  22.612  0.00  0.00     0.030 A 
HETATM   19  C   UNL     1       5.700   5.390  23.897  0.00  0.00     0.031 A 
HETATM   20  C   UNL     1       4.558   5.845  24.579  0.00  0.00     0.032 A 
BRANCH  18  21
HETATM   21  N   UNL     1       7.065   5.322  21.882  0.00  0.00    -0.377 N 
HETATM   22  C   UNL     1       8.172   4.550  22.460  0.00  0.00     0.149 C 
HETATM   23  C   UNL     1       8.268   3.175  21.783  0.00  0.00     0.187 C 
HETATM   24  O   UNL     1       8.395   3.300  20.356  0.00  0.00    -0.388 OA
HETATM   25  C   UNL     1       7.248   3.979  19.819  0.00  0.00     0.187 C 
HETATM   26  C   UNL     1       7.078   5.388  20.410  0.00  0.00     0.149 C 
ENDBRANCH  18  21
ENDBRANCH  13  15
ENDBRANCH   8  11
BRANCH   9  27
HETATM   27  O   UNL     1       1.351   6.953  27.930  0.00  0.00    -0.360 OA
HETATM   28  H   UNL     1       1.988   7.233  28.629  0.00  0.00     0.217 HD
ENDBRANCH   9  27
BRANCH   1  29
HETATM   29  C   UNL     1      -1.511  12.315  25.149  0.00  0.00     0.274 C 
HETATM   30  N   UNL     1      -2.104  11.988  23.918  0.00  0.00    -0.351 N 
HETATM   31  C   UNL     1      -2.885  10.779  23.698  0.00  0.00     0.153 C 
HETATM   32  O   UNL     1      -0.985  13.413  25.321  0.00  0.00    -0.266 OA
BRANCH  30  33
HETATM   33  C   UNL     1      -1.946  12.910  22.795  0.00  0.00     0.129 C 
BRANCH  33  34
HETATM   34  C   UNL     1      -2.309  12.331  21.413  0.00  0.00    -0.005 C 
HETATM   35  C   UNL     1      -3.120  13.304  20.557  0.00  0.00     0.011 C 
HETATM   36  C   UNL     1      -1.086  11.837  20.641  0.00  0.00     0.011 C 
ENDBRANCH  33  34
ENDBRANCH  30  33
ENDBRANCH   1  29
TORSDOF 7
ENDMDL
