MODEL 1
REMARK VINA RESULT:    -6.753      0.000      0.000
REMARK INTER + INTRA:          -9.768
REMARK INTER:                  -8.359
REMARK INTRA:                  -1.409
REMARK UNBOUND:                -1.436
REMARK  5 active torsions:
REMARK  status: ('A' for Active; 'I' for Inactive)
REMARK    1  A    between atoms: O_1  and  C_2 
REMARK    2  A    between atoms: C_4  and  O_5 
REMARK    3  A    between atoms: C_6  and  C_9 
REMARK    4  A    between atoms: N_15  and  C_16 
REMARK    5  A    between atoms: C_17  and  C_18 
ROOT
HETATM    1  C   UNL     1      -3.992  12.186  23.851  0.00  0.00     0.171 C 
HETATM    2  N   UNL     1      -4.953  11.313  23.996  0.00  0.00    -0.151 NA
HETATM    3  N   UNL     1      -4.736  10.752  25.219  0.00  0.00    -0.226 N 
HETATM    4  H   UNL     1      -5.419  10.154  25.666  0.00  0.00     0.194 HD
HETATM    5  C   UNL     1      -3.648  11.342  25.844  0.00  0.00     0.349 C 
HETATM    6  O   UNL     1      -3.321  11.158  27.009  0.00  0.00    -0.245 OA
HETATM    7  N   UNL     1      -3.106  12.191  24.905  0.00  0.00    -0.244 N 
ENDROOT
BRANCH   1   8
HETATM    8  C   UNL     1      -3.889  13.078  22.649  0.00  0.00     0.045 A 
HETATM    9  C   UNL     1      -3.349  12.597  21.442  0.00  0.00     0.082 A 
HETATM   10  C   UNL     1      -3.321  13.386  20.282  0.00  0.00     0.074 A 
HETATM   11  C   UNL     1      -3.840  14.671  20.322  0.00  0.00     0.068 A 
HETATM   12  C   UNL     1      -4.315  15.199  21.511  0.00  0.00     0.037 A 
HETATM   13  C   UNL     1      -4.317  14.415  22.672  0.00  0.00     0.021 A 
BRANCH   9  14
HETATM   14  O   UNL     1      -2.850  11.325  21.345  0.00  0.00    -0.360 OA
HETATM   15  H   UNL     1      -2.363  11.222  20.512  0.00  0.00     0.217 HD
ENDBRANCH   9  14
BRANCH  11  16
HETATM   16  O   UNL     1      -3.907  15.448  19.205  0.00  0.00    -0.361 OA
HETATM   17  H   UNL     1      -4.680  15.183  18.680  0.00  0.00     0.217 HD
ENDBRANCH  11  16
ENDBRANCH   1   8
BRANCH   7  18
HETATM   18  C   UNL     1      -2.065  13.080  25.207  0.00  0.00     0.052 C 
HETATM   19  C   UNL     1      -0.794  12.918  24.618  0.00  0.00    -0.031 C 
HETATM   20  C   UNL     1       0.139  13.961  24.750  0.00  0.00     0.009 C 
HETATM   21  C   UNL     1      -0.141  15.078  25.538  0.00  0.00     0.001 C 
HETATM   22  C   UNL     1      -1.354  15.166  26.218  0.00  0.00     0.002 C 
HETATM   23  C   UNL     1      -2.324  14.180  26.037  0.00  0.00     0.031 C 
BRANCH  19  24
HETATM   24  C   UNL     1      -0.385  11.678  23.854  0.00  0.00     0.036 C 
HETATM   25  C   UNL     1       0.364  11.952  22.561  0.00  0.00     0.010 C 
ENDBRANCH  19  24
ENDBRANCH   7  18
TORSDOF 5
ENDMDL
MODEL 2
REMARK VINA RESULT:    -6.670      2.867      5.040
REMARK INTER + INTRA:          -9.666
REMARK INTER:                  -8.196
REMARK INTRA:                  -1.471
REMARK UNBOUND:                -1.436
REMARK  5 active torsions:
REMARK  status: ('A' for Active; 'I' for Inactive)
REMARK    1  A    between atoms: O_1  and  C_2 
REMARK    2  A    between atoms: C_4  and  O_5 
REMARK    3  A    between atoms: C_6  and  C_9 
REMARK    4  A    between atoms: N_15  and  C_16 
REMARK    5  A    between atoms: C_17  and  C_18 
ROOT
HETATM    1  C   UNL     1      -0.425  11.704  22.853  0.00  0.00     0.171 C 
HETATM    2  N   UNL     1      -0.184  10.524  23.360  0.00  0.00    -0.151 NA
HETATM    3  N   UNL     1      -1.413  10.006  23.644  0.00  0.00    -0.226 N 
HETATM    4  H   UNL     1      -1.542   9.036  23.899  0.00  0.00     0.194 HD
HETATM    5  C   UNL     1      -2.416  10.876  23.246  0.00  0.00     0.349 C 
HETATM    6  O   UNL     1      -3.610  10.610  23.223  0.00  0.00    -0.245 OA
HETATM    7  N   UNL     1      -1.765  12.020  22.838  0.00  0.00    -0.244 N 
ENDROOT
BRANCH   1   8
HETATM    8  C   UNL     1       0.666  12.601  22.347  0.00  0.00     0.045 A 
HETATM    9  C   UNL     1       1.532  13.255  23.244  0.00  0.00     0.082 A 
HETATM   10  C   UNL     1       2.611  14.029  22.792  0.00  0.00     0.074 A 
HETATM   11  C   UNL     1       2.833  14.154  21.429  0.00  0.00     0.068 A 
HETATM   12  C   UNL     1       1.960  13.581  20.520  0.00  0.00     0.037 A 
HETATM   13  C   UNL     1       0.870  12.829  20.977  0.00  0.00     0.021 A 
BRANCH   9  14
HETATM   14  O   UNL     1       1.369  13.139  24.599  0.00  0.00    -0.360 OA
HETATM   15  H   UNL     1       1.993  12.485  24.953  0.00  0.00     0.217 HD
ENDBRANCH   9  14
BRANCH  11  16
HETATM   16  O   UNL     1       3.911  14.830  20.942  0.00  0.00    -0.361 OA
HETATM   17  H   UNL     1       3.720  15.783  20.953  0.00  0.00     0.217 HD
ENDBRANCH  11  16
ENDBRANCH   1   8
BRANCH   7  18
HETATM   18  C   UNL     1      -2.436  13.089  22.229  0.00  0.00     0.052 C 
HETATM   19  C   UNL     1      -2.609  14.308  22.917  0.00  0.00    -0.031 C 
HETATM   20  C   UNL     1      -3.059  15.425  22.191  0.00  0.00     0.009 C 
HETATM   21  C   UNL     1      -3.433  15.305  20.852  0.00  0.00     0.001 C 
HETATM   22  C   UNL     1      -3.376  14.066  20.219  0.00  0.00     0.002 C 
HETATM   23  C   UNL     1      -2.859  12.963  20.898  0.00  0.00     0.031 C 
BRANCH  19  24
HETATM   24  C   UNL     1      -2.338  14.472  24.395  0.00  0.00     0.036 C 
HETATM   25  C   UNL     1      -1.227  15.454  24.728  0.00  0.00     0.010 C 
ENDBRANCH  19  24
ENDBRANCH   7  18
TORSDOF 5
ENDMDL
MODEL 3
REMARK VINA RESULT:    -6.649      2.245      4.799
REMARK INTER + INTRA:          -9.640
REMARK INTER:                  -8.271
REMARK INTRA:                  -1.370
REMARK UNBOUND:                -1.436
REMARK  5 active torsions:
REMARK  status: ('A' for Active; 'I' for Inactive)
REMARK    1  A    between atoms: O_1  and  C_2 
REMARK    2  A    between atoms: C_4  and  O_5 
REMARK    3  A    between atoms: C_6  and  C_9 
REMARK    4  A    between atoms: N_15  and  C_16 
REMARK    5  A    between atoms: C_17  and  C_18 
ROOT
HETATM    1  C   UNL     1      -3.726  14.319  22.960  0.00  0.00     0.171 C 
HETATM    2  N   UNL     1      -4.896  14.650  22.482  0.00  0.00    -0.151 NA
HETATM    3  N   UNL     1      -4.635  15.215  21.270  0.00  0.00    -0.226 N 
HETATM    4  H   UNL     1      -5.366  15.420  20.602  0.00  0.00     0.194 HD
HETATM    5  C   UNL     1      -3.278  15.173  20.991  0.00  0.00     0.349 C 
HETATM    6  O   UNL     1      -2.772  15.454  19.913  0.00  0.00    -0.245 OA
HETATM    7  N   UNL     1      -2.686  14.693  22.139  0.00  0.00    -0.244 N 
ENDROOT
BRANCH   1   8
HETATM    8  C   UNL     1      -3.563  13.607  24.270  0.00  0.00     0.045 A 
HETATM    9  C   UNL     1      -4.217  12.384  24.509  0.00  0.00     0.082 A 
HETATM   10  C   UNL     1      -4.012  11.659  25.693  0.00  0.00     0.074 A 
HETATM   11  C   UNL     1      -3.143  12.157  26.652  0.00  0.00     0.068 A 
HETATM   12  C   UNL     1      -2.538  13.391  26.478  0.00  0.00     0.037 A 
HETATM   13  C   UNL     1      -2.766  14.122  25.305  0.00  0.00     0.021 A 
BRANCH   9  14
HETATM   14  O   UNL     1      -5.062  11.838  23.580  0.00  0.00    -0.360 OA
HETATM   15  H   UNL     1      -4.551  11.481  22.836  0.00  0.00     0.217 HD
ENDBRANCH   9  14
BRANCH  11  16
HETATM   16  O   UNL     1      -2.851  11.455  27.782  0.00  0.00    -0.361 OA
HETATM   17  H   UNL     1      -1.951  11.097  27.710  0.00  0.00     0.217 HD
ENDBRANCH  11  16
ENDBRANCH   1   8
BRANCH   7  18
HETATM   18  C   UNL     1      -1.323  14.373  22.204  0.00  0.00     0.052 C 
HETATM   19  C   UNL     1      -0.848  13.159  21.666  0.00  0.00    -0.031 C 
HETATM   20  C   UNL     1       0.541  12.989  21.528  0.00  0.00     0.009 C 
HETATM   21  C   UNL     1       1.431  13.947  22.015  0.00  0.00     0.001 C 
HETATM   22  C   UNL     1       0.950  15.084  22.659  0.00  0.00     0.002 C 
HETATM   23  C   UNL     1      -0.423  15.309  22.735  0.00  0.00     0.031 C 
BRANCH  19  24
HETATM   24  C   UNL     1      -1.757  12.031  21.233  0.00  0.00     0.036 C 
HETATM   25  C   UNL     1      -1.892  10.904  22.244  0.00  0.00     0.010 C 
ENDBRANCH  19  24
ENDBRANCH   7  18
TORSDOF 5
ENDMDL
MODEL 4
REMARK VINA RESULT:    -6.626      2.806      4.631
REMARK INTER + INTRA:          -9.611
REMARK INTER:                  -8.537
REMARK INTRA:                  -1.074
REMARK UNBOUND:                -1.436
REMARK  5 active torsions:
REMARK  status: ('A' for Active; 'I' for Inactive)
REMARK    1  A    between atoms: O_1  and  C_2 
REMARK    2  A    between atoms: C_4  and  O_5 
REMARK    3  A    between atoms: C_6  and  C_9 
REMARK    4  A    between atoms: N_15  and  C_16 
REMARK    5  A    between atoms: C_17  and  C_18 
ROOT
HETATM    1  C   UNL     1      -2.076  11.622  22.756  0.00  0.00     0.171 C 
HETATM    2  N   UNL     1      -2.562  10.990  21.721  0.00  0.00    -0.151 NA
HETATM    3  N   UNL     1      -1.685  11.246  20.709  0.00  0.00    -0.226 N 
HETATM    4  H   UNL     1      -1.722  10.753  19.827  0.00  0.00     0.194 HD
HETATM    5  C   UNL     1      -0.620  12.007  21.164  0.00  0.00     0.349 C 
HETATM    6  O   UNL     1       0.395  12.249  20.525  0.00  0.00    -0.245 OA
HETATM    7  N   UNL     1      -0.938  12.340  22.462  0.00  0.00    -0.244 N 
ENDROOT
BRANCH   1   8
HETATM    8  C   UNL     1      -2.714  11.556  24.112  0.00  0.00     0.045 A 
HETATM    9  C   UNL     1      -4.019  12.043  24.317  0.00  0.00     0.082 A 
HETATM   10  C   UNL     1      -4.666  11.914  25.555  0.00  0.00     0.074 A 
HETATM   11  C   UNL     1      -4.008  11.291  26.604  0.00  0.00     0.068 A 
HETATM   12  C   UNL     1      -2.699  10.863  26.456  0.00  0.00     0.037 A 
HETATM   13  C   UNL     1      -2.049  11.017  25.225  0.00  0.00     0.021 A 
BRANCH   9  14
HETATM   14  O   UNL     1      -4.720  12.641  23.303  0.00  0.00    -0.360 OA
HETATM   15  H   UNL     1      -4.875  12.004  22.587  0.00  0.00     0.217 HD
ENDBRANCH   9  14
BRANCH  11  16
HETATM   16  O   UNL     1      -4.621  11.073  27.801  0.00  0.00    -0.361 OA
HETATM   17  H   UNL     1      -5.518  10.735  27.641  0.00  0.00     0.217 HD
ENDBRANCH  11  16
ENDBRANCH   1   8
BRANCH   7  18
HETATM   18  C   UNL     1      -0.037  12.994  23.313  0.00  0.00     0.052 C 
HETATM   19  C   UNL     1       1.010  12.278  23.931  0.00  0.00    -0.031 C 
HETATM   20  C   UNL     1       2.029  13.006  24.569  0.00  0.00     0.009 C 
HETATM   21  C   UNL     1       1.950  14.394  24.689  0.00  0.00     0.001 C 
HETATM   22  C   UNL     1       0.846  15.077  24.184  0.00  0.00     0.002 C 
HETATM   23  C   UNL     1      -0.136  14.383  23.479  0.00  0.00     0.031 C 
BRANCH  19  24
HETATM   24  C   UNL     1       1.089  10.768  23.942  0.00  0.00     0.036 C 
HETATM   25  C   UNL     1       1.651  10.174  25.222  0.00  0.00     0.010 C 
ENDBRANCH  19  24
ENDBRANCH   7  18
TORSDOF 5
ENDMDL
MODEL 5
REMARK VINA RESULT:    -6.536      2.509      4.782
REMARK INTER + INTRA:          -9.501
REMARK INTER:                  -8.494
REMARK INTRA:                  -1.007
REMARK UNBOUND:                -1.436
REMARK  5 active torsions:
REMARK  status: ('A' for Active; 'I' for Inactive)
REMARK    1  A    between atoms: O_1  and  C_2 
REMARK    2  A    between atoms: C_4  and  O_5 
REMARK    3  A    between atoms: C_6  and  C_9 
REMARK    4  A    between atoms: N_15  and  C_16 
REMARK    5  A    between atoms: C_17  and  C_18 
ROOT
HETATM    1  C   UNL     1      -2.030  11.666  22.665  0.00  0.00     0.171 C 
HETATM    2  N   UNL     1      -2.444  10.954  21.651  0.00  0.00    -0.151 NA
HETATM    3  N   UNL     1      -1.612  11.285  20.624  0.00  0.00    -0.226 N 
HETATM    4  H   UNL     1      -1.595  10.768  19.755  0.00  0.00     0.194 HD
HETATM    5  C   UNL     1      -0.641  12.180  21.049  0.00  0.00     0.349 C 
HETATM    6  O   UNL     1       0.334  12.524  20.393  0.00  0.00    -0.245 OA
HETATM    7  N   UNL     1      -0.987  12.506  22.341  0.00  0.00    -0.244 N 
ENDROOT
BRANCH   1   8
HETATM    8  C   UNL     1      -2.646  11.560  24.028  0.00  0.00     0.045 A 
HETATM    9  C   UNL     1      -3.983  11.942  24.244  0.00  0.00     0.082 A 
HETATM   10  C   UNL     1      -4.605  11.772  25.490  0.00  0.00     0.074 A 
HETATM   11  C   UNL     1      -3.887  11.214  26.537  0.00  0.00     0.068 A 
HETATM   12  C   UNL     1      -2.549  10.892  26.377  0.00  0.00     0.037 A 
HETATM   13  C   UNL     1      -1.927  11.087  25.137  0.00  0.00     0.021 A 
BRANCH   9  14
HETATM   14  O   UNL     1      -4.741  12.473  23.234  0.00  0.00    -0.360 OA
HETATM   15  H   UNL     1      -5.026  13.370  23.470  0.00  0.00     0.217 HD
ENDBRANCH   9  14
BRANCH  11  16
HETATM   16  O   UNL     1      -4.468  10.957  27.742  0.00  0.00    -0.361 OA
HETATM   17  H   UNL     1      -3.778  10.923  28.426  0.00  0.00     0.217 HD
ENDBRANCH  11  16
ENDBRANCH   1   8
BRANCH   7  18
HETATM   18  C   UNL     1      -0.164  13.285  23.166  0.00  0.00     0.052 C 
HETATM   19  C   UNL     1      -0.655  14.473  23.747  0.00  0.00    -0.031 C 
HETATM   20  C   UNL     1       0.109  15.086  24.755  0.00  0.00     0.009 C 
HETATM   21  C   UNL     1       1.372  14.598  25.094  0.00  0.00     0.001 C 
HETATM   22  C   UNL     1       1.898  13.497  24.423  0.00  0.00     0.002 C 
HETATM   23  C   UNL     1       1.125  12.827  23.476  0.00  0.00     0.031 C 
BRANCH  19  24
HETATM   24  C   UNL     1      -1.958  15.120  23.337  0.00  0.00     0.036 C 
HETATM   25  C   UNL     1      -2.061  15.454  21.859  0.00  0.00     0.010 C 
ENDBRANCH  19  24
ENDBRANCH   7  18
TORSDOF 5
ENDMDL
MODEL 6
REMARK VINA RESULT:    -6.424      1.948      5.162
REMARK INTER + INTRA:          -9.363
REMARK INTER:                  -7.881
REMARK INTRA:                  -1.481
REMARK UNBOUND:                -1.436
REMARK  5 active torsions:
REMARK  status: ('A' for Active; 'I' for Inactive)
REMARK    1  A    between atoms: O_1  and  C_2 
REMARK    2  A    between atoms: C_4  and  O_5 
REMARK    3  A    between atoms: C_6  and  C_9 
REMARK    4  A    between atoms: N_15  and  C_16 
REMARK    5  A    between atoms: C_17  and  C_18 
ROOT
HETATM    1  C   UNL     1      -3.224  12.437  23.469  0.00  0.00     0.171 C 
HETATM    2  N   UNL     1      -4.507  12.343  23.240  0.00  0.00    -0.151 NA
HETATM    3  N   UNL     1      -4.752  13.230  22.235  0.00  0.00    -0.226 N 
HETATM    4  H   UNL     1      -5.634  13.256  21.742  0.00  0.00     0.194 HD
HETATM    5  C   UNL     1      -3.575  13.831  21.814  0.00  0.00     0.349 C 
HETATM    6  O   UNL     1      -3.464  14.542  20.824  0.00  0.00    -0.245 OA
HETATM    7  N   UNL     1      -2.609  13.394  22.693  0.00  0.00    -0.244 N 
ENDROOT
BRANCH   1   8
HETATM    8  C   UNL     1      -2.521  11.578  24.477  0.00  0.00     0.045 A 
HETATM    9  C   UNL     1      -2.763  11.742  25.854  0.00  0.00     0.082 A 
HETATM   10  C   UNL     1      -2.182  10.895  26.809  0.00  0.00     0.074 A 
HETATM   11  C   UNL     1      -1.349   9.868  26.390  0.00  0.00     0.068 A 
HETATM   12  C   UNL     1      -1.036   9.722  25.048  0.00  0.00     0.037 A 
HETATM   13  C   UNL     1      -1.600  10.587  24.101  0.00  0.00     0.021 A 
BRANCH   9  14
HETATM   14  O   UNL     1      -3.600  12.724  26.315  0.00  0.00    -0.360 OA
HETATM   15  H   UNL     1      -3.091  13.527  26.511  0.00  0.00     0.217 HD
ENDBRANCH   9  14
BRANCH  11  16
HETATM   16  O   UNL     1      -0.823   8.972  27.271  0.00  0.00    -0.361 OA
HETATM   17  H   UNL     1      -0.512   8.192  26.782  0.00  0.00     0.217 HD
ENDBRANCH  11  16
ENDBRANCH   1   8
BRANCH   7  18
HETATM   18  C   UNL     1      -1.248  13.675  22.514  0.00  0.00     0.052 C 
HETATM   19  C   UNL     1      -0.575  14.543  23.398  0.00  0.00    -0.031 C 
HETATM   20  C   UNL     1       0.828  14.601  23.335  0.00  0.00     0.009 C 
HETATM   21  C   UNL     1       1.531  13.907  22.349  0.00  0.00     0.001 C 
HETATM   22  C   UNL     1       0.843  13.153  21.402  0.00  0.00     0.002 C 
HETATM   23  C   UNL     1      -0.542  13.018  21.495  0.00  0.00     0.031 C 
BRANCH  19  24
HETATM   24  C   UNL     1      -1.287  15.414  24.408  0.00  0.00     0.036 C 
HETATM   25  C   UNL     1      -0.989  15.073  25.858  0.00  0.00     0.010 C 
ENDBRANCH  19  24
ENDBRANCH   7  18
TORSDOF 5
ENDMDL
MODEL 7
REMARK VINA RESULT:    -6.420      2.369      4.802
REMARK INTER + INTRA:          -9.357
REMARK INTER:                  -7.921
REMARK INTRA:                  -1.436
REMARK UNBOUND:                -1.436
REMARK  5 active torsions:
REMARK  status: ('A' for Active; 'I' for Inactive)
REMARK    1  A    between atoms: O_1  and  C_2 
REMARK    2  A    between atoms: C_4  and  O_5 
REMARK    3  A    between atoms: C_6  and  C_9 
REMARK    4  A    between atoms: N_15  and  C_16 
REMARK    5  A    between atoms: C_17  and  C_18 
ROOT
HETATM    1  C   UNL     1      -2.942  11.317  24.762  0.00  0.00     0.171 C 
HETATM    2  N   UNL     1      -3.899  10.909  23.970  0.00  0.00    -0.151 NA
HETATM    3  N   UNL     1      -4.528  12.048  23.563  0.00  0.00    -0.226 N 
HETATM    4  H   UNL     1      -5.209  12.049  22.816  0.00  0.00     0.194 HD
HETATM    5  C   UNL     1      -3.898  13.169  24.083  0.00  0.00     0.349 C 
HETATM    6  O   UNL     1      -4.139  14.324  23.759  0.00  0.00    -0.245 OA
HETATM    7  N   UNL     1      -2.942  12.681  24.946  0.00  0.00    -0.244 N 
ENDROOT
BRANCH   1   8
HETATM    8  C   UNL     1      -1.961  10.373  25.391  0.00  0.00     0.045 A 
HETATM    9  C   UNL     1      -1.015   9.690  24.603  0.00  0.00     0.082 A 
HETATM   10  C   UNL     1      -0.034   8.868  25.178  0.00  0.00     0.074 A 
HETATM   11  C   UNL     1       0.009   8.725  26.557  0.00  0.00     0.068 A 
HETATM   12  C   UNL     1      -0.949   9.329  27.355  0.00  0.00     0.037 A 
HETATM   13  C   UNL     1      -1.942  10.127  26.773  0.00  0.00     0.021 A 
BRANCH   9  14
HETATM   14  O   UNL     1      -1.000   9.821  23.240  0.00  0.00    -0.360 OA
HETATM   15  H   UNL     1      -0.157   9.498  22.885  0.00  0.00     0.217 HD
ENDBRANCH   9  14
BRANCH  11  16
HETATM   16  O   UNL     1       0.988   8.002  27.169  0.00  0.00    -0.361 OA
HETATM   17  H   UNL     1       1.687   8.606  27.472  0.00  0.00     0.217 HD
ENDBRANCH  11  16
ENDBRANCH   1   8
BRANCH   7  18
HETATM   18  C   UNL     1      -1.997  13.510  25.566  0.00  0.00     0.052 C 
HETATM   19  C   UNL     1      -0.844  13.924  24.867  0.00  0.00    -0.031 C 
HETATM   20  C   UNL     1      -0.055  14.944  25.427  0.00  0.00     0.009 C 
HETATM   21  C   UNL     1      -0.339  15.454  26.695  0.00  0.00     0.001 C 
HETATM   22  C   UNL     1      -1.408  14.946  27.429  0.00  0.00     0.002 C 
HETATM   23  C   UNL     1      -2.249  13.991  26.859  0.00  0.00     0.031 C 
BRANCH  19  24
HETATM   24  C   UNL     1      -0.414  13.325  23.547  0.00  0.00     0.036 C 
HETATM   25  C   UNL     1       0.973  12.703  23.557  0.00  0.00     0.010 C 
ENDBRANCH  19  24
ENDBRANCH   7  18
TORSDOF 5
ENDMDL
MODEL 8
REMARK VINA RESULT:    -6.395      1.539      2.699
REMARK INTER + INTRA:          -9.326
REMARK INTER:                  -7.990
REMARK INTRA:                  -1.336
REMARK UNBOUND:                -1.436
REMARK  5 active torsions:
REMARK  status: ('A' for Active; 'I' for Inactive)
REMARK    1  A    between atoms: O_1  and  C_2 
REMARK    2  A    between atoms: C_4  and  O_5 
REMARK    3  A    between atoms: C_6  and  C_9 
REMARK    4  A    between atoms: N_15  and  C_16 
REMARK    5  A    between atoms: C_17  and  C_18 
ROOT
HETATM    1  C   UNL     1      -2.726  12.021  23.827  0.00  0.00     0.171 C 
HETATM    2  N   UNL     1      -3.520  11.124  24.348  0.00  0.00    -0.151 NA
HETATM    3  N   UNL     1      -2.830  10.616  25.408  0.00  0.00    -0.226 N 
HETATM    4  H   UNL     1      -3.264  10.014  26.095  0.00  0.00     0.194 HD
HETATM    5  C   UNL     1      -1.613  11.264  25.557  0.00  0.00     0.349 C 
HETATM    6  O   UNL     1      -0.860  11.134  26.512  0.00  0.00    -0.245 OA
HETATM    7  N   UNL     1      -1.507  12.094  24.463  0.00  0.00    -0.244 N 
ENDROOT
BRANCH   1   8
HETATM    8  C   UNL     1      -3.128  12.870  22.657  0.00  0.00     0.045 A 
HETATM    9  C   UNL     1      -4.098  13.879  22.801  0.00  0.00     0.082 A 
HETATM   10  C   UNL     1      -4.428  14.740  21.743  0.00  0.00     0.074 A 
HETATM   11  C   UNL     1      -3.782  14.595  20.524  0.00  0.00     0.068 A 
HETATM   12  C   UNL     1      -2.873  13.569  20.329  0.00  0.00     0.037 A 
HETATM   13  C   UNL     1      -2.567  12.697  21.382  0.00  0.00     0.021 A 
BRANCH   9  14
HETATM   14  O   UNL     1      -4.743  14.078  23.994  0.00  0.00    -0.360 OA
HETATM   15  H   UNL     1      -5.036  13.227  24.357  0.00  0.00     0.217 HD
ENDBRANCH   9  14
BRANCH  11  16
HETATM   16  O   UNL     1      -4.010  15.454  19.491  0.00  0.00    -0.361 OA
HETATM   17  H   UNL     1      -3.619  16.318  19.704  0.00  0.00     0.217 HD
ENDBRANCH  11  16
ENDBRANCH   1   8
BRANCH   7  18
HETATM   18  C   UNL     1      -0.469  13.026  24.325  0.00  0.00     0.052 C 
HETATM   19  C   UNL     1      -0.527  14.263  24.999  0.00  0.00    -0.031 C 
HETATM   20  C   UNL     1       0.633  15.057  25.035  0.00  0.00     0.009 C 
HETATM   21  C   UNL     1       1.777  14.686  24.327  0.00  0.00     0.001 C 
HETATM   22  C   UNL     1       1.777  13.523  23.561  0.00  0.00     0.002 C 
HETATM   23  C   UNL     1       0.666  12.682  23.575  0.00  0.00     0.031 C 
BRANCH  19  24
HETATM   24  C   UNL     1      -1.773  14.778  25.682  0.00  0.00     0.036 C 
HETATM   25  C   UNL     1      -1.739  14.704  27.200  0.00  0.00     0.010 C 
ENDBRANCH  19  24
ENDBRANCH   7  18
TORSDOF 5
ENDMDL
MODEL 9
REMARK VINA RESULT:    -6.371      2.033      4.931
REMARK INTER + INTRA:          -9.297
REMARK INTER:                  -7.880
REMARK INTRA:                  -1.417
REMARK UNBOUND:                -1.436
REMARK  5 active torsions:
REMARK  status: ('A' for Active; 'I' for Inactive)
REMARK    1  A    between atoms: O_1  and  C_2 
REMARK    2  A    between atoms: C_4  and  O_5 
REMARK    3  A    between atoms: C_6  and  C_9 
REMARK    4  A    between atoms: N_15  and  C_16 
REMARK    5  A    between atoms: C_17  and  C_18 
ROOT
HETATM    1  C   UNL     1      -3.159  12.046  24.039  0.00  0.00     0.171 C 
HETATM    2  N   UNL     1      -4.363  11.761  23.621  0.00  0.00    -0.151 NA
HETATM    3  N   UNL     1      -4.739  12.836  22.871  0.00  0.00    -0.226 N 
HETATM    4  H   UNL     1      -5.565  12.824  22.288  0.00  0.00     0.194 HD
HETATM    5  C   UNL     1      -3.712  13.764  22.795  0.00  0.00     0.349 C 
HETATM    6  O   UNL     1      -3.702  14.743  22.062  0.00  0.00    -0.245 OA
HETATM    7  N   UNL     1      -2.735  13.296  23.646  0.00  0.00    -0.244 N 
ENDROOT
BRANCH   1   8
HETATM    8  C   UNL     1      -2.345  11.091  24.861  0.00  0.00     0.045 A 
HETATM    9  C   UNL     1      -1.426  10.219  24.250  0.00  0.00     0.082 A 
HETATM   10  C   UNL     1      -0.594   9.378  25.005  0.00  0.00     0.074 A 
HETATM   11  C   UNL     1      -0.677   9.406  26.389  0.00  0.00     0.068 A 
HETATM   12  C   UNL     1      -1.619  10.202  27.019  0.00  0.00     0.037 A 
HETATM   13  C   UNL     1      -2.464  11.021  26.259  0.00  0.00     0.021 A 
BRANCH   9  14
HETATM   14  O   UNL     1      -1.288  10.175  22.887  0.00  0.00    -0.360 OA
HETATM   15  H   UNL     1      -1.512  11.038  22.504  0.00  0.00     0.217 HD
ENDBRANCH   9  14
BRANCH  11  16
HETATM   16  O   UNL     1       0.161   8.667  27.168  0.00  0.00    -0.361 OA
HETATM   17  H   UNL     1       0.137   9.012  28.076  0.00  0.00     0.217 HD
ENDBRANCH  11  16
ENDBRANCH   1   8
BRANCH   7  18
HETATM   18  C   UNL     1      -1.469  13.892  23.737  0.00  0.00     0.052 C 
HETATM   19  C   UNL     1      -1.116  14.646  24.875  0.00  0.00    -0.031 C 
HETATM   20  C   UNL     1       0.231  15.013  25.040  0.00  0.00     0.009 C 
HETATM   21  C   UNL     1       1.174  14.738  24.049  0.00  0.00     0.001 C 
HETATM   22  C   UNL     1       0.785  14.103  22.872  0.00  0.00     0.002 C 
HETATM   23  C   UNL     1      -0.528  13.661  22.723  0.00  0.00     0.031 C 
BRANCH  19  24
HETATM   24  C   UNL     1      -2.114  15.081  25.925  0.00  0.00     0.036 C 
HETATM   25  C   UNL     1      -1.739  14.704  27.348  0.00  0.00     0.010 C 
ENDBRANCH  19  24
ENDBRANCH   7  18
TORSDOF 5
ENDMDL
