MODEL 1
REMARK VINA RESULT:    -7.600      0.000      0.000
REMARK INTER + INTRA:         -12.035
REMARK INTER:                  -9.903
REMARK INTRA:                  -2.132
REMARK UNBOUND:                -2.214
REMARK  6 active torsions:
REMARK  status: ('A' for Active; 'I' for Inactive)
REMARK    1  A    between atoms: N_4  and  S_6 
REMARK    2  A    between atoms: S_6  and  C_9 
REMARK    3  A    between atoms: C_11  and  C_17 
REMARK    4  A    between atoms: C_12  and  O_13 
REMARK    5  A    between atoms: C_15  and  O_16 
REMARK    6  A    between atoms: N_23  and  C_24 
ROOT
HETATM    1  C   UNL     1       7.579  11.185  21.370  0.00  0.00     0.121 A 
HETATM    2  C   UNL     1       8.064  11.642  22.605  0.00  0.00     0.046 A 
HETATM    3  C   UNL     1       8.965  12.707  22.682  0.00  0.00     0.047 A 
HETATM    4  C   UNL     1       9.375  13.310  21.483  0.00  0.00     0.082 A 
HETATM    5  C   UNL     1       8.932  12.832  20.246  0.00  0.00     0.075 A 
HETATM    6  C   UNL     1       8.019  11.777  20.186  0.00  0.00     0.091 A 
ENDROOT
BRANCH   3   7
HETATM    7  C   UNL     1       9.299  13.322  23.992  0.00  0.00     0.172 A 
HETATM    8  N   UNL     1      10.467  13.107  24.548  0.00  0.00    -0.151 NA
HETATM    9  N   UNL     1      10.495  13.954  25.615  0.00  0.00    -0.226 N 
HETATM   10  H   UNL     1      11.287  14.042  26.237  0.00  0.00     0.194 HD
HETATM   11  C   UNL     1       9.319  14.691  25.700  0.00  0.00     0.349 A 
HETATM   12  O   UNL     1       9.073  15.527  26.556  0.00  0.00    -0.245 OA
HETATM   13  N   UNL     1       8.537  14.250  24.654  0.00  0.00    -0.241 N 
BRANCH  13  14
HETATM   14  C   UNL     1       7.187  14.613  24.499  0.00  0.00     0.084 A 
HETATM   15  C   UNL     1       6.160  13.906  25.131  0.00  0.00     0.143 A 
HETATM   16  F   UNL     1       6.450  12.891  25.958  0.00  0.00    -0.204 F 
HETATM   17  C   UNL     1       4.824  14.251  24.937  0.00  0.00     0.044 A 
HETATM   18  C   UNL     1       4.501  15.304  24.083  0.00  0.00     0.003 A 
HETATM   19  C   UNL     1       5.515  16.019  23.444  0.00  0.00     0.002 A 
HETATM   20  C   UNL     1       6.854  15.691  23.667  0.00  0.00     0.033 A 
ENDBRANCH  13  14
ENDBRANCH   3   7
BRANCH   4  21
HETATM   21  O   UNL     1      10.171  14.423  21.437  0.00  0.00    -0.360 OA
HETATM   22  H   UNL     1       9.950  14.995  22.204  0.00  0.00     0.217 HD
ENDBRANCH   4  21
BRANCH   1  23
HETATM   23  S   UNL     1       6.306   9.932  21.425  0.00  0.00     0.349 S 
HETATM   24  O   UNL     1       6.747   8.924  22.370  0.00  0.00    -0.193 OA
HETATM   25  O   UNL     1       5.932   9.550  20.082  0.00  0.00    -0.193 OA
BRANCH  23  26
HETATM   26  N   UNL     1       4.991  10.804  22.159  0.00  0.00     0.028 N 
HETATM   27  C   UNL     1       3.527  12.871  21.853  0.00  0.00     0.178 A 
HETATM   28  C   UNL     1       2.215  12.624  22.584  0.00  0.00     0.036 C 
HETATM   29  C   UNL     1       4.202  11.654  21.215  0.00  0.00     0.366 A 
HETATM   30  C   UNL     1       4.172   9.946  23.044  0.00  0.00     0.293 C 
ENDBRANCH  23  26
ENDBRANCH   1  23
BRANCH   6  31
HETATM   31  O   UNL     1       7.507  11.417  18.981  0.00  0.00    -0.359 OA
HETATM   32  H   UNL     1       8.127  11.647  18.267  0.00  0.00     0.217 HD
ENDBRANCH   6  31
TORSDOF 6
ENDMDL
MODEL 2
REMARK VINA RESULT:    -7.574      1.278      1.766
REMARK INTER + INTRA:         -12.002
REMARK INTER:                  -9.905
REMARK INTRA:                  -2.097
REMARK UNBOUND:                -2.214
REMARK  6 active torsions:
REMARK  status: ('A' for Active; 'I' for Inactive)
REMARK    1  A    between atoms: N_4  and  S_6 
REMARK    2  A    between atoms: S_6  and  C_9 
REMARK    3  A    between atoms: C_11  and  C_17 
REMARK    4  A    between atoms: C_12  and  O_13 
REMARK    5  A    between atoms: C_15  and  O_16 
REMARK    6  A    between atoms: N_23  and  C_24 
ROOT
HETATM    1  C   UNL     1       6.785  11.338  21.278  0.00  0.00     0.121 A 
HETATM    2  C   UNL     1       7.193  11.758  22.554  0.00  0.00     0.046 A 
HETATM    3  C   UNL     1       8.349  12.524  22.730  0.00  0.00     0.047 A 
HETATM    4  C   UNL     1       9.093  12.863  21.591  0.00  0.00     0.082 A 
HETATM    5  C   UNL     1       8.718  12.412  20.322  0.00  0.00     0.075 A 
HETATM    6  C   UNL     1       7.553  11.660  20.159  0.00  0.00     0.091 A 
ENDROOT
BRANCH   3   7
HETATM    7  C   UNL     1       8.651  13.144  24.046  0.00  0.00     0.172 A 
HETATM    8  N   UNL     1       9.787  12.896  24.651  0.00  0.00    -0.151 NA
HETATM    9  N   UNL     1       9.802  13.756  25.708  0.00  0.00    -0.226 N 
HETATM   10  H   UNL     1      10.571  13.825  26.361  0.00  0.00     0.194 HD
HETATM   11  C   UNL     1       8.650  14.534  25.737  0.00  0.00     0.349 A 
HETATM   12  O   UNL     1       8.399  15.390  26.572  0.00  0.00    -0.245 OA
HETATM   13  N   UNL     1       7.895  14.107  24.665  0.00  0.00    -0.241 N 
BRANCH  13  14
HETATM   14  C   UNL     1       6.566  14.514  24.450  0.00  0.00     0.084 A 
HETATM   15  C   UNL     1       5.484  13.742  24.883  0.00  0.00     0.143 A 
HETATM   16  F   UNL     1       5.695  12.612  25.574  0.00  0.00    -0.204 F 
HETATM   17  C   UNL     1       4.172  14.136  24.629  0.00  0.00     0.044 A 
HETATM   18  C   UNL     1       3.931  15.309  23.914  0.00  0.00     0.003 A 
HETATM   19  C   UNL     1       5.001  16.089  23.475  0.00  0.00     0.002 A 
HETATM   20  C   UNL     1       6.314  15.707  23.760  0.00  0.00     0.033 A 
ENDBRANCH  13  14
ENDBRANCH   3   7
BRANCH   4  21
HETATM   21  O   UNL     1      10.182  13.693  21.625  0.00  0.00    -0.360 OA
HETATM   22  H   UNL     1      10.824  13.336  22.279  0.00  0.00     0.217 HD
ENDBRANCH   4  21
BRANCH   1  23
HETATM   23  S   UNL     1       5.203  10.512  21.177  0.00  0.00     0.349 S 
HETATM   24  O   UNL     1       5.321   9.502  20.143  0.00  0.00    -0.193 OA
HETATM   25  O   UNL     1       4.140  11.490  21.116  0.00  0.00    -0.193 OA
BRANCH  23  26
HETATM   26  N   UNL     1       5.139   9.693  22.711  0.00  0.00     0.028 N 
HETATM   27  C   UNL     1       4.105   9.856  25.037  0.00  0.00     0.178 A 
HETATM   28  C   UNL     1       4.043   8.451  25.618  0.00  0.00     0.036 C 
HETATM   29  C   UNL     1       3.919   9.987  23.524  0.00  0.00     0.366 A 
HETATM   30  C   UNL     1       5.468   8.255  22.595  0.00  0.00     0.293 C 
ENDBRANCH  23  26
ENDBRANCH   1  23
BRANCH   6  31
HETATM   31  O   UNL     1       7.142  11.344  18.904  0.00  0.00    -0.359 OA
HETATM   32  H   UNL     1       7.823  11.591  18.253  0.00  0.00     0.217 HD
ENDBRANCH   6  31
TORSDOF 6
ENDMDL
MODEL 3
REMARK VINA RESULT:    -7.497      1.779      2.660
REMARK INTER + INTRA:         -11.902
REMARK INTER:                 -10.261
REMARK INTRA:                  -1.641
REMARK UNBOUND:                -2.214
REMARK  6 active torsions:
REMARK  status: ('A' for Active; 'I' for Inactive)
REMARK    1  A    between atoms: N_4  and  S_6 
REMARK    2  A    between atoms: S_6  and  C_9 
REMARK    3  A    between atoms: C_11  and  C_17 
REMARK    4  A    between atoms: C_12  and  O_13 
REMARK    5  A    between atoms: C_15  and  O_16 
REMARK    6  A    between atoms: N_23  and  C_24 
ROOT
HETATM    1  C   UNL     1       7.544  11.186  21.374  0.00  0.00     0.121 A 
HETATM    2  C   UNL     1       8.025  11.656  22.605  0.00  0.00     0.046 A 
HETATM    3  C   UNL     1       8.931  12.718  22.674  0.00  0.00     0.047 A 
HETATM    4  C   UNL     1       9.349  13.304  21.470  0.00  0.00     0.082 A 
HETATM    5  C   UNL     1       8.909  12.814  20.237  0.00  0.00     0.075 A 
HETATM    6  C   UNL     1       7.992  11.762  20.185  0.00  0.00     0.091 A 
ENDROOT
BRANCH   3   7
HETATM    7  C   UNL     1       9.262  13.347  23.978  0.00  0.00     0.172 A 
HETATM    8  N   UNL     1      10.440  13.164  24.523  0.00  0.00    -0.151 NA
HETATM    9  N   UNL     1      10.457  14.016  25.586  0.00  0.00    -0.226 N 
HETATM   10  H   UNL     1      11.252  14.128  26.201  0.00  0.00     0.194 HD
HETATM   11  C   UNL     1       9.263  14.723  25.681  0.00  0.00     0.349 A 
HETATM   12  O   UNL     1       9.004  15.556  26.535  0.00  0.00    -0.245 OA
HETATM   13  N   UNL     1       8.482  14.257  24.644  0.00  0.00    -0.241 N 
BRANCH  13  14
HETATM   14  C   UNL     1       7.122  14.585  24.500  0.00  0.00     0.084 A 
HETATM   15  C   UNL     1       6.114  13.795  25.062  0.00  0.00     0.143 A 
HETATM   16  F   UNL     1       6.431  12.729  25.811  0.00  0.00    -0.204 F 
HETATM   17  C   UNL     1       4.769  14.108  24.879  0.00  0.00     0.044 A 
HETATM   18  C   UNL     1       4.418  15.214  24.106  0.00  0.00     0.003 A 
HETATM   19  C   UNL     1       5.412  16.011  23.538  0.00  0.00     0.002 A 
HETATM   20  C   UNL     1       6.760  15.713  23.752  0.00  0.00     0.033 A 
ENDBRANCH  13  14
ENDBRANCH   3   7
BRANCH   4  21
HETATM   21  O   UNL     1      10.150  14.414  21.414  0.00  0.00    -0.360 OA
HETATM   22  H   UNL     1       9.601  15.178  21.132  0.00  0.00     0.217 HD
ENDBRANCH   4  21
BRANCH   1  23
HETATM   23  S   UNL     1       6.265   9.939  21.438  0.00  0.00     0.349 S 
HETATM   24  O   UNL     1       5.834   9.707  20.072  0.00  0.00    -0.193 OA
HETATM   25  O   UNL     1       5.295  10.280  22.454  0.00  0.00    -0.193 OA
BRANCH  23  26
HETATM   26  N   UNL     1       7.166   8.542  21.952  0.00  0.00     0.028 N 
HETATM   27  C   UNL     1       8.541   7.640  23.902  0.00  0.00     0.178 A 
HETATM   28  C   UNL     1       8.487   6.120  23.845  0.00  0.00     0.036 C 
HETATM   29  C   UNL     1       7.294   8.394  23.435  0.00  0.00     0.366 A 
HETATM   30  C   UNL     1       6.747   7.311  21.245  0.00  0.00     0.293 C 
ENDBRANCH  23  26
ENDBRANCH   1  23
BRANCH   6  31
HETATM   31  O   UNL     1       7.484  11.389  18.982  0.00  0.00    -0.359 OA
HETATM   32  H   UNL     1       6.670  11.887  18.790  0.00  0.00     0.217 HD
ENDBRANCH   6  31
TORSDOF 6
ENDMDL
MODEL 4
REMARK VINA RESULT:    -7.447      1.304      1.620
REMARK INTER + INTRA:         -11.837
REMARK INTER:                 -10.142
REMARK INTRA:                  -1.695
REMARK UNBOUND:                -2.214
REMARK  6 active torsions:
REMARK  status: ('A' for Active; 'I' for Inactive)
REMARK    1  A    between atoms: N_4  and  S_6 
REMARK    2  A    between atoms: S_6  and  C_9 
REMARK    3  A    between atoms: C_11  and  C_17 
REMARK    4  A    between atoms: C_12  and  O_13 
REMARK    5  A    between atoms: C_15  and  O_16 
REMARK    6  A    between atoms: N_23  and  C_24 
ROOT
HETATM    1  C   UNL     1       7.458  11.458  21.341  0.00  0.00     0.121 A 
HETATM    2  C   UNL     1       7.755  11.875  22.648  0.00  0.00     0.046 A 
HETATM    3  C   UNL     1       8.738  12.835  22.898  0.00  0.00     0.047 A 
HETATM    4  C   UNL     1       9.426  13.374  21.800  0.00  0.00     0.082 A 
HETATM    5  C   UNL     1       9.168  12.932  20.499  0.00  0.00     0.075 A 
HETATM    6  C   UNL     1       8.171  11.982  20.263  0.00  0.00     0.091 A 
ENDROOT
BRANCH   3   7
HETATM    7  C   UNL     1       8.892  13.427  24.252  0.00  0.00     0.172 A 
HETATM    8  N   UNL     1       9.999  13.250  24.932  0.00  0.00    -0.151 NA
HETATM    9  N   UNL     1       9.865  14.066  26.015  0.00  0.00    -0.226 N 
HETATM   10  H   UNL     1      10.576  14.173  26.726  0.00  0.00     0.194 HD
HETATM   11  C   UNL     1       8.651  14.745  25.983  0.00  0.00     0.349 A 
HETATM   12  O   UNL     1       8.269  15.543  26.825  0.00  0.00    -0.245 OA
HETATM   13  N   UNL     1       8.014  14.299  24.844  0.00  0.00    -0.241 N 
BRANCH  13  14
HETATM   14  C   UNL     1       6.675  14.603  24.544  0.00  0.00     0.084 A 
HETATM   15  C   UNL     1       5.634  13.727  24.867  0.00  0.00     0.143 A 
HETATM   16  F   UNL     1       5.890  12.591  25.532  0.00  0.00    -0.204 F 
HETATM   17  C   UNL     1       4.315  14.022  24.529  0.00  0.00     0.044 A 
HETATM   18  C   UNL     1       4.027  15.199  23.839  0.00  0.00     0.003 A 
HETATM   19  C   UNL     1       5.055  16.082  23.510  0.00  0.00     0.002 A 
HETATM   20  C   UNL     1       6.371  15.798  23.880  0.00  0.00     0.033 A 
ENDBRANCH  13  14
ENDBRANCH   3   7
BRANCH   4  21
HETATM   21  O   UNL     1      10.335  14.392  21.909  0.00  0.00    -0.360 OA
HETATM   22  H   UNL     1      11.026  14.124  22.554  0.00  0.00     0.217 HD
ENDBRANCH   4  21
BRANCH   1  23
HETATM   23  S   UNL     1       6.066  10.353  21.152  0.00  0.00     0.349 S 
HETATM   24  O   UNL     1       5.410  10.276  22.444  0.00  0.00    -0.193 OA
HETATM   25  O   UNL     1       6.484   9.144  20.479  0.00  0.00    -0.193 OA
BRANCH  23  26
HETATM   26  N   UNL     1       5.035  11.270  20.091  0.00  0.00     0.028 N 
HETATM   27  C   UNL     1       4.171  11.342  17.692  0.00  0.00     0.178 A 
HETATM   28  C   UNL     1       2.846  12.091  17.697  0.00  0.00     0.036 C 
HETATM   29  C   UNL     1       4.494  10.500  18.929  0.00  0.00     0.366 A 
HETATM   30  C   UNL     1       4.024  12.058  20.831  0.00  0.00     0.293 C 
ENDBRANCH  23  26
ENDBRANCH   1  23
BRANCH   6  31
HETATM   31  O   UNL     1       7.852  11.665  18.982  0.00  0.00    -0.359 OA
HETATM   32  H   UNL     1       8.571  11.154  18.571  0.00  0.00     0.217 HD
ENDBRANCH   6  31
TORSDOF 6
ENDMDL
MODEL 5
REMARK VINA RESULT:    -7.313      2.268      3.269
REMARK INTER + INTRA:         -11.664
REMARK INTER:                  -9.743
REMARK INTRA:                  -1.921
REMARK UNBOUND:                -2.214
REMARK  6 active torsions:
REMARK  status: ('A' for Active; 'I' for Inactive)
REMARK    1  A    between atoms: N_4  and  S_6 
REMARK    2  A    between atoms: S_6  and  C_9 
REMARK    3  A    between atoms: C_11  and  C_17 
REMARK    4  A    between atoms: C_12  and  O_13 
REMARK    5  A    between atoms: C_15  and  O_16 
REMARK    6  A    between atoms: N_23  and  C_24 
ROOT
HETATM    1  C   UNL     1       6.248   9.961  23.324  0.00  0.00     0.121 A 
HETATM    2  C   UNL     1       6.981  11.088  22.919  0.00  0.00     0.046 A 
HETATM    3  C   UNL     1       8.377  11.106  22.976  0.00  0.00     0.047 A 
HETATM    4  C   UNL     1       9.030   9.960  23.452  0.00  0.00     0.082 A 
HETATM    5  C   UNL     1       8.308   8.849  23.899  0.00  0.00     0.075 A 
HETATM    6  C   UNL     1       6.913   8.840  23.821  0.00  0.00     0.091 A 
ENDROOT
BRANCH   3   7
HETATM    7  C   UNL     1       9.145  12.210  22.346  0.00  0.00     0.172 A 
HETATM    8  N   UNL     1      10.158  11.947  21.557  0.00  0.00    -0.151 NA
HETATM    9  N   UNL     1      10.496  13.155  21.025  0.00  0.00    -0.226 N 
HETATM   10  H   UNL     1      11.237  13.281  20.348  0.00  0.00     0.194 HD
HETATM   11  C   UNL     1       9.668  14.163  21.508  0.00  0.00     0.349 A 
HETATM   12  O   UNL     1       9.742  15.343  21.198  0.00  0.00    -0.245 OA
HETATM   13  N   UNL     1       8.810  13.539  22.389  0.00  0.00    -0.241 N 
BRANCH  13  14
HETATM   14  C   UNL     1       7.934  14.242  23.235  0.00  0.00     0.084 A 
HETATM   15  C   UNL     1       8.146  14.310  24.616  0.00  0.00     0.143 A 
HETATM   16  F   UNL     1       9.237  13.751  25.160  0.00  0.00    -0.204 F 
HETATM   17  C   UNL     1       7.249  14.976  25.448  0.00  0.00     0.044 A 
HETATM   18  C   UNL     1       6.110  15.566  24.903  0.00  0.00     0.003 A 
HETATM   19  C   UNL     1       5.885  15.506  23.527  0.00  0.00     0.002 A 
HETATM   20  C   UNL     1       6.804  14.866  22.692  0.00  0.00     0.033 A 
ENDBRANCH  13  14
ENDBRANCH   3   7
BRANCH   4  21
HETATM   21  O   UNL     1      10.393   9.820  23.457  0.00  0.00    -0.360 OA
HETATM   22  H   UNL     1      10.691   9.658  22.535  0.00  0.00     0.217 HD
ENDBRANCH   4  21
BRANCH   1  23
HETATM   23  S   UNL     1       4.485  10.009  23.040  0.00  0.00     0.349 S 
HETATM   24  O   UNL     1       3.879   9.107  24.001  0.00  0.00    -0.193 OA
HETATM   25  O   UNL     1       4.208   9.855  21.629  0.00  0.00    -0.193 OA
BRANCH  23  26
HETATM   26  N   UNL     1       4.098  11.635  23.524  0.00  0.00     0.028 N 
HETATM   27  C   UNL     1       2.744  13.677  22.815  0.00  0.00     0.178 A 
HETATM   28  C   UNL     1       2.441  14.491  24.064  0.00  0.00     0.036 C 
HETATM   29  C   UNL     1       2.806  12.157  22.979  0.00  0.00     0.366 A 
HETATM   30  C   UNL     1       4.283  11.849  24.976  0.00  0.00     0.293 C 
ENDBRANCH  23  26
ENDBRANCH   1  23
BRANCH   6  31
HETATM   31  O   UNL     1       6.243   7.703  24.140  0.00  0.00    -0.359 OA
HETATM   32  H   UNL     1       5.287   7.824  24.006  0.00  0.00     0.217 HD
ENDBRANCH   6  31
TORSDOF 6
ENDMDL
MODEL 6
REMARK VINA RESULT:    -7.303      2.369      5.685
REMARK INTER + INTRA:         -11.651
REMARK INTER:                  -9.755
REMARK INTRA:                  -1.896
REMARK UNBOUND:                -2.214
REMARK  6 active torsions:
REMARK  status: ('A' for Active; 'I' for Inactive)
REMARK    1  A    between atoms: N_4  and  S_6 
REMARK    2  A    between atoms: S_6  and  C_9 
REMARK    3  A    between atoms: C_11  and  C_17 
REMARK    4  A    between atoms: C_12  and  O_13 
REMARK    5  A    between atoms: C_15  and  O_16 
REMARK    6  A    between atoms: N_23  and  C_24 
ROOT
HETATM    1  C   UNL     1       8.619  13.505  22.700  0.00  0.00     0.121 A 
HETATM    2  C   UNL     1       7.888  13.119  21.566  0.00  0.00     0.046 A 
HETATM    3  C   UNL     1       7.642  11.773  21.284  0.00  0.00     0.047 A 
HETATM    4  C   UNL     1       8.149  10.812  22.171  0.00  0.00     0.082 A 
HETATM    5  C   UNL     1       8.916  11.185  23.279  0.00  0.00     0.075 A 
HETATM    6  C   UNL     1       9.141  12.536  23.557  0.00  0.00     0.091 A 
ENDROOT
BRANCH   3   7
HETATM    7  C   UNL     1       6.689  11.386  20.212  0.00  0.00     0.172 A 
HETATM    8  N   UNL     1       7.113  11.190  18.987  0.00  0.00    -0.151 NA
HETATM    9  N   UNL     1       6.032  10.680  18.333  0.00  0.00    -0.226 N 
HETATM   10  H   UNL     1       6.047  10.397  17.362  0.00  0.00     0.194 HD
HETATM   11  C   UNL     1       4.938  10.570  19.184  0.00  0.00     0.349 A 
HETATM   12  O   UNL     1       3.839  10.141  18.867  0.00  0.00    -0.245 OA
HETATM   13  N   UNL     1       5.371  11.060  20.399  0.00  0.00    -0.241 N 
BRANCH  13  14
HETATM   14  C   UNL     1       4.507  11.297  21.483  0.00  0.00     0.084 A 
HETATM   15  C   UNL     1       4.272  10.325  22.460  0.00  0.00     0.143 A 
HETATM   16  F   UNL     1       4.921   9.152  22.415  0.00  0.00    -0.204 F 
HETATM   17  C   UNL     1       3.383  10.558  23.507  0.00  0.00     0.044 A 
HETATM   18  C   UNL     1       2.700  11.772  23.574  0.00  0.00     0.003 A 
HETATM   19  C   UNL     1       2.924  12.751  22.606  0.00  0.00     0.002 A 
HETATM   20  C   UNL     1       3.840  12.526  21.576  0.00  0.00     0.033 A 
ENDBRANCH  13  14
ENDBRANCH   3   7
BRANCH   4  21
HETATM   21  O   UNL     1       7.886   9.473  22.058  0.00  0.00    -0.360 OA
HETATM   22  H   UNL     1       7.003   9.364  21.641  0.00  0.00     0.217 HD
ENDBRANCH   4  21
BRANCH   1  23
HETATM   23  S   UNL     1       8.714  15.259  23.031  0.00  0.00     0.349 S 
HETATM   24  O   UNL     1       8.605  15.935  21.753  0.00  0.00    -0.193 OA
HETATM   25  O   UNL     1       9.835  15.536  23.902  0.00  0.00    -0.193 OA
BRANCH  23  26
HETATM   26  N   UNL     1       7.232  15.530  23.901  0.00  0.00     0.028 N 
HETATM   27  C   UNL     1       4.750  16.003  23.549  0.00  0.00     0.178 A 
HETATM   28  C   UNL     1       4.004  15.516  24.782  0.00  0.00     0.036 C 
HETATM   29  C   UNL     1       5.990  15.209  23.132  0.00  0.00     0.366 A 
HETATM   30  C   UNL     1       7.271  14.968  25.269  0.00  0.00     0.293 C 
ENDBRANCH  23  26
ENDBRANCH   1  23
BRANCH   6  31
HETATM   31  O   UNL     1       9.778  12.875  24.707  0.00  0.00    -0.359 OA
HETATM   32  H   UNL     1      10.653  13.254  24.509  0.00  0.00     0.217 HD
ENDBRANCH   6  31
TORSDOF 6
ENDMDL
MODEL 7
REMARK VINA RESULT:    -7.041      2.118      3.051
REMARK INTER + INTRA:         -11.313
REMARK INTER:                  -9.746
REMARK INTRA:                  -1.567
REMARK UNBOUND:                -2.214
REMARK  6 active torsions:
REMARK  status: ('A' for Active; 'I' for Inactive)
REMARK    1  A    between atoms: N_4  and  S_6 
REMARK    2  A    between atoms: S_6  and  C_9 
REMARK    3  A    between atoms: C_11  and  C_17 
REMARK    4  A    between atoms: C_12  and  O_13 
REMARK    5  A    between atoms: C_15  and  O_16 
REMARK    6  A    between atoms: N_23  and  C_24 
ROOT
HETATM    1  C   UNL     1       5.674  10.862  23.002  0.00  0.00     0.121 A 
HETATM    2  C   UNL     1       6.837  11.647  23.022  0.00  0.00     0.046 A 
HETATM    3  C   UNL     1       7.607  11.834  21.871  0.00  0.00     0.047 A 
HETATM    4  C   UNL     1       7.183  11.211  20.688  0.00  0.00     0.082 A 
HETATM    5  C   UNL     1       6.051  10.391  20.669  0.00  0.00     0.075 A 
HETATM    6  C   UNL     1       5.283  10.226  21.823  0.00  0.00     0.091 A 
ENDROOT
BRANCH   3   7
HETATM    7  C   UNL     1       8.703  12.836  21.849  0.00  0.00     0.172 A 
HETATM    8  N   UNL     1       9.814  12.591  21.198  0.00  0.00    -0.151 NA
HETATM    9  N   UNL     1      10.496  13.770  21.234  0.00  0.00    -0.226 N 
HETATM   10  H   UNL     1      11.393  13.911  20.790  0.00  0.00     0.194 HD
HETATM   11  C   UNL     1       9.779  14.741  21.924  0.00  0.00     0.349 A 
HETATM   12  O   UNL     1      10.149  15.891  22.108  0.00  0.00    -0.245 OA
HETATM   13  N   UNL     1       8.625  14.113  22.343  0.00  0.00    -0.241 N 
BRANCH  13  14
HETATM   14  C   UNL     1       7.713  14.700  23.238  0.00  0.00     0.084 A 
HETATM   15  C   UNL     1       7.877  14.601  24.623  0.00  0.00     0.143 A 
HETATM   16  F   UNL     1       8.955  13.986  25.133  0.00  0.00    -0.204 F 
HETATM   17  C   UNL     1       6.944  15.152  25.499  0.00  0.00     0.044 A 
HETATM   18  C   UNL     1       5.818  15.797  24.990  0.00  0.00     0.003 A 
HETATM   19  C   UNL     1       5.640  15.904  23.610  0.00  0.00     0.002 A 
HETATM   20  C   UNL     1       6.594  15.378  22.736  0.00  0.00     0.033 A 
ENDBRANCH  13  14
ENDBRANCH   3   7
BRANCH   4  21
HETATM   21  O   UNL     1       7.795  11.403  19.477  0.00  0.00    -0.360 OA
HETATM   22  H   UNL     1       7.166  11.147  18.768  0.00  0.00     0.217 HD
ENDBRANCH   4  21
BRANCH   1  23
HETATM   23  S   UNL     1       4.694  10.845  24.496  0.00  0.00     0.349 S 
HETATM   24  O   UNL     1       5.449  11.568  25.503  0.00  0.00    -0.193 OA
HETATM   25  O   UNL     1       4.229   9.503  24.766  0.00  0.00    -0.193 OA
BRANCH  23  26
HETATM   26  N   UNL     1       3.341  11.838  24.037  0.00  0.00     0.028 N 
HETATM   27  C   UNL     1       2.763  14.071  22.948  0.00  0.00     0.178 A 
HETATM   28  C   UNL     1       1.362  13.954  22.363  0.00  0.00     0.036 C 
HETATM   29  C   UNL     1       3.625  12.807  22.933  0.00  0.00     0.366 A 
HETATM   30  C   UNL     1       2.100  11.052  23.861  0.00  0.00     0.293 C 
ENDBRANCH  23  26
ENDBRANCH   1  23
BRANCH   6  31
HETATM   31  O   UNL     1       4.119   9.530  21.747  0.00  0.00    -0.359 OA
HETATM   32  H   UNL     1       3.876   9.380  20.817  0.00  0.00     0.217 HD
ENDBRANCH   6  31
TORSDOF 6
ENDMDL
MODEL 8
REMARK VINA RESULT:    -6.873      2.794      6.828
REMARK INTER + INTRA:         -11.096
REMARK INTER:                  -8.882
REMARK INTRA:                  -2.214
REMARK UNBOUND:                -2.214
REMARK  6 active torsions:
REMARK  status: ('A' for Active; 'I' for Inactive)
REMARK    1  A    between atoms: N_4  and  S_6 
REMARK    2  A    between atoms: S_6  and  C_9 
REMARK    3  A    between atoms: C_11  and  C_17 
REMARK    4  A    between atoms: C_12  and  O_13 
REMARK    5  A    between atoms: C_15  and  O_16 
REMARK    6  A    between atoms: N_23  and  C_24 
ROOT
HETATM    1  C   UNL     1       5.227  14.197  23.296  0.00  0.00     0.121 A 
HETATM    2  C   UNL     1       5.417  13.147  22.384  0.00  0.00     0.046 A 
HETATM    3  C   UNL     1       4.335  12.537  21.743  0.00  0.00     0.047 A 
HETATM    4  C   UNL     1       3.047  13.007  22.037  0.00  0.00     0.082 A 
HETATM    5  C   UNL     1       2.845  14.023  22.976  0.00  0.00     0.075 A 
HETATM    6  C   UNL     1       3.937  14.633  23.598  0.00  0.00     0.091 A 
ENDROOT
BRANCH   3   7
HETATM    7  C   UNL     1       4.558  11.584  20.626  0.00  0.00     0.172 A 
HETATM    8  N   UNL     1       4.037  11.812  19.444  0.00  0.00    -0.151 NA
HETATM    9  N   UNL     1       4.588  10.859  18.642  0.00  0.00    -0.226 N 
HETATM   10  H   UNL     1       4.401  10.786  17.651  0.00  0.00     0.194 HD
HETATM   11  C   UNL     1       5.456  10.042  19.358  0.00  0.00     0.349 A 
HETATM   12  O   UNL     1       6.089   9.108  18.891  0.00  0.00    -0.245 OA
HETATM   13  N   UNL     1       5.406  10.507  20.655  0.00  0.00    -0.241 N 
BRANCH  13  14
HETATM   14  C   UNL     1       6.000   9.831  21.736  0.00  0.00     0.084 A 
HETATM   15  C   UNL     1       7.295  10.132  22.167  0.00  0.00     0.143 A 
HETATM   16  F   UNL     1       7.985  11.127  21.588  0.00  0.00    -0.204 F 
HETATM   17  C   UNL     1       7.887   9.428  23.213  0.00  0.00     0.044 A 
HETATM   18  C   UNL     1       7.187   8.392  23.830  0.00  0.00     0.003 A 
HETATM   19  C   UNL     1       5.894   8.079  23.410  0.00  0.00     0.002 A 
HETATM   20  C   UNL     1       5.292   8.809  22.383  0.00  0.00     0.033 A 
ENDBRANCH  13  14
ENDBRANCH   3   7
BRANCH   4  21
HETATM   21  O   UNL     1       1.921  12.561  21.396  0.00  0.00    -0.360 OA
HETATM   22  H   UNL     1       1.933  12.901  20.475  0.00  0.00     0.217 HD
ENDBRANCH   4  21
BRANCH   1  23
HETATM   23  S   UNL     1       6.701  14.997  23.912  0.00  0.00     0.349 S 
HETATM   24  O   UNL     1       6.372  15.538  25.218  0.00  0.00    -0.193 OA
HETATM   25  O   UNL     1       7.259  15.856  22.893  0.00  0.00    -0.193 OA
BRANCH  23  26
HETATM   26  N   UNL     1       7.759  13.637  24.156  0.00  0.00     0.028 N 
HETATM   27  C   UNL     1      10.081  12.763  23.563  0.00  0.00     0.178 A 
HETATM   28  C   UNL     1      10.496  11.774  24.643  0.00  0.00     0.036 C 
HETATM   29  C   UNL     1       9.215  13.945  24.004  0.00  0.00     0.366 A 
HETATM   30  C   UNL     1       7.418  12.869  25.374  0.00  0.00     0.293 C 
ENDBRANCH  23  26
ENDBRANCH   1  23
BRANCH   6  31
HETATM   31  O   UNL     1       3.721  15.702  24.408  0.00  0.00    -0.359 OA
HETATM   32  H   UNL     1       2.773  15.919  24.436  0.00  0.00     0.217 HD
ENDBRANCH   6  31
TORSDOF 6
ENDMDL
MODEL 9
REMARK VINA RESULT:    -6.855      2.711      3.892
REMARK INTER + INTRA:         -11.073
REMARK INTER:                  -9.316
REMARK INTRA:                  -1.757
REMARK UNBOUND:                -2.214
REMARK  6 active torsions:
REMARK  status: ('A' for Active; 'I' for Inactive)
REMARK    1  A    between atoms: N_4  and  S_6 
REMARK    2  A    between atoms: S_6  and  C_9 
REMARK    3  A    between atoms: C_11  and  C_17 
REMARK    4  A    between atoms: C_12  and  O_13 
REMARK    5  A    between atoms: C_15  and  O_16 
REMARK    6  A    between atoms: N_23  and  C_24 
ROOT
HETATM    1  C   UNL     1       6.474   9.709  22.973  0.00  0.00     0.121 A 
HETATM    2  C   UNL     1       7.108  10.895  22.572  0.00  0.00     0.046 A 
HETATM    3  C   UNL     1       8.413  11.192  22.973  0.00  0.00     0.047 A 
HETATM    4  C   UNL     1       9.076  10.266  23.792  0.00  0.00     0.082 A 
HETATM    5  C   UNL     1       8.437   9.103  24.233  0.00  0.00     0.075 A 
HETATM    6  C   UNL     1       7.137   8.813  23.811  0.00  0.00     0.091 A 
ENDROOT
BRANCH   3   7
HETATM    7  C   UNL     1       9.149  12.333  22.370  0.00  0.00     0.172 A 
HETATM    8  N   UNL     1      10.198  12.121  21.613  0.00  0.00    -0.151 NA
HETATM    9  N   UNL     1      10.495  13.346  21.095  0.00  0.00    -0.226 N 
HETATM   10  H   UNL     1      11.251  13.509  20.443  0.00  0.00     0.194 HD
HETATM   11  C   UNL     1       9.606  14.312  21.553  0.00  0.00     0.349 A 
HETATM   12  O   UNL     1       9.633  15.494  21.249  0.00  0.00    -0.245 OA
HETATM   13  N   UNL     1       8.750  13.644  22.405  0.00  0.00    -0.241 N 
BRANCH  13  14
HETATM   14  C   UNL     1       7.815  14.302  23.224  0.00  0.00     0.084 A 
HETATM   15  C   UNL     1       8.062  14.530  24.581  0.00  0.00     0.143 A 
HETATM   16  F   UNL     1       9.236  14.175  25.123  0.00  0.00    -0.204 F 
HETATM   17  C   UNL     1       7.110  15.146  25.391  0.00  0.00     0.044 A 
HETATM   18  C   UNL     1       5.884  15.525  24.847  0.00  0.00     0.003 A 
HETATM   19  C   UNL     1       5.623  15.304  23.494  0.00  0.00     0.002 A 
HETATM   20  C   UNL     1       6.592  14.715  22.679  0.00  0.00     0.033 A 
ENDBRANCH  13  14
ENDBRANCH   3   7
BRANCH   4  21
HETATM   21  O   UNL     1      10.389  10.396  24.163  0.00  0.00    -0.360 OA
HETATM   22  H   UNL     1      10.496  10.015  25.062  0.00  0.00     0.217 HD
ENDBRANCH   4  21
BRANCH   1  23
HETATM   23  S   UNL     1       4.873   9.376  22.253  0.00  0.00     0.349 S 
HETATM   24  O   UNL     1       4.270  10.661  21.953  0.00  0.00    -0.193 OA
HETATM   25  O   UNL     1       4.159   8.414  23.062  0.00  0.00    -0.193 OA
BRANCH  23  26
HETATM   26  N   UNL     1       5.317   8.636  20.742  0.00  0.00     0.028 N 
HETATM   27  C   UNL     1       5.454   6.373  19.574  0.00  0.00     0.178 A 
HETATM   28  C   UNL     1       5.368   6.617  18.074  0.00  0.00     0.036 C 
HETATM   29  C   UNL     1       4.659   7.320  20.475  0.00  0.00     0.366 A 
HETATM   30  C   UNL     1       5.265   9.589  19.612  0.00  0.00     0.293 C 
ENDBRANCH  23  26
ENDBRANCH   1  23
BRANCH   6  31
HETATM   31  O   UNL     1       6.587   7.618  24.149  0.00  0.00    -0.359 OA
HETATM   32  H   UNL     1       6.748   6.962  23.449  0.00  0.00     0.217 HD
ENDBRANCH   6  31
TORSDOF 6
ENDMDL
