MODEL 1
REMARK VINA RESULT:   -10.936      0.000      0.000
REMARK INTER + INTRA:         -13.917
REMARK INTER:                 -13.042
REMARK INTRA:                  -0.875
REMARK UNBOUND:                -0.744
REMARK  4 active torsions:
REMARK  status: ('A' for Active; 'I' for Inactive)
REMARK    1  A    between atoms: N_1  and  C_2 
REMARK    2  A    between atoms: C_7  and  C_8 
REMARK       I    between atoms: C_8  and  N_10 
REMARK    3  A    between atoms: N_10  and  C_11 
REMARK    4  A    between atoms: C_23  and  C_24 
ROOT
HETATM    1  C   UNL     1       3.333  12.274  23.663  0.00  0.00     0.153 C 
HETATM    2  C   UNL     1       4.047  13.589  23.408  0.00  0.00    -0.020 A 
HETATM    3  C   UNL     1       3.563  14.878  23.618  0.00  0.00     0.010 A 
HETATM    4  C   UNL     1       4.450  15.949  23.529  0.00  0.00     0.001 A 
HETATM    5  C   UNL     1       5.803  15.719  23.269  0.00  0.00     0.001 A 
HETATM    6  C   UNL     1       6.281  14.419  23.059  0.00  0.00     0.013 A 
HETATM    7  C   UNL     1       5.405  13.342  23.084  0.00  0.00    -0.016 A 
HETATM    8  C   UNL     1       5.604  11.897  22.883  0.00  0.00    -0.003 A 
HETATM    9  C   UNL     1       4.345  11.265  23.147  0.00  0.00    -0.019 A 
HETATM   10  C   UNL     1       4.170   9.890  23.077  0.00  0.00     0.010 A 
HETATM   11  C   UNL     1       5.264   9.112  22.724  0.00  0.00     0.002 A 
HETATM   12  C   UNL     1       6.507   9.709  22.453  0.00  0.00     0.016 A 
HETATM   13  C   UNL     1       6.711  11.109  22.521  0.00  0.00     0.022 A 
ENDROOT
BRANCH   1  14
HETATM   14  N   UNL     1       1.978  12.153  23.158  0.00  0.00    -0.343 N 
HETATM   15  C   UNL     1       0.930  12.399  24.034  0.00  0.00     0.273 C 
HETATM   16  O   UNL     1       1.154  12.824  25.158  0.00  0.00    -0.266 OA
HETATM   17  H   UNL     1       1.794  11.793  22.227  0.00  0.00     0.163 HD
BRANCH  15  18
HETATM   18  C   UNL     1      -0.485  12.135  23.590  0.00  0.00     0.150 A 
HETATM   19  C   UNL     1      -1.318  11.303  24.328  0.00  0.00     0.086 A 
HETATM   20  C   UNL     1      -2.591  11.169  23.828  0.00  0.00     0.146 A 
HETATM   21 CL   UNL     1      -0.937  10.423  25.756  0.00  0.00    -0.080 Cl
HETATM   22  N   UNL     1      -3.018  11.759  22.698  0.00  0.00    -0.229 NA
HETATM   23  C   UNL     1      -2.132  12.505  22.035  0.00  0.00     0.199 A 
HETATM   24  N   UNL     1      -0.874  12.749  22.433  0.00  0.00    -0.211 NA
BRANCH  23  25
HETATM   25  N   UNL     1      -2.586  13.064  20.861  0.00  0.00    -0.271 NA
HETATM   26  H   UNL     1      -3.260  13.793  21.067  0.00  0.00     0.127 HD
HETATM   27  H   UNL     1      -1.834  13.293  20.232  0.00  0.00     0.127 HD
ENDBRANCH  23  25
ENDBRANCH  15  18
ENDBRANCH   1  14
BRANCH  13  28
HETATM   28  C   UNL     1       8.046  11.642  22.189  0.00  0.00     0.140 A 
HETATM   29  N   UNL     1       8.950  12.088  23.038  0.00  0.00    -0.227 NA
HETATM   30  C   UNL     1      10.064  12.415  22.308  0.00  0.00     0.103 A 
HETATM   31  C   UNL     1      11.329  12.837  22.723  0.00  0.00     0.150 A 
HETATM   32  C   UNL     1       9.814  12.272  20.951  0.00  0.00     0.065 A 
HETATM   33  N   UNL     1      12.286  13.136  21.804  0.00  0.00    -0.271 NA
HETATM   34  C   UNL     1      11.981  13.020  20.489  0.00  0.00     0.118 A 
HETATM   35  C   UNL     1      10.761  12.587  19.980  0.00  0.00     0.051 A 
HETATM   36  N   UNL     1       8.532  11.781  20.899  0.00  0.00    -0.338 N 
HETATM   37  H   UNL     1       8.037  11.523  20.058  0.00  0.00     0.167 HD
ENDBRANCH  13  28
TORSDOF 4
ENDMDL
MODEL 2
REMARK VINA RESULT:   -10.492      2.921      9.764
REMARK INTER + INTRA:         -13.383
REMARK INTER:                 -12.300
REMARK INTRA:                  -1.083
REMARK UNBOUND:                -0.744
REMARK  4 active torsions:
REMARK  status: ('A' for Active; 'I' for Inactive)
REMARK    1  A    between atoms: N_1  and  C_2 
REMARK    2  A    between atoms: C_7  and  C_8 
REMARK       I    between atoms: C_8  and  N_10 
REMARK    3  A    between atoms: N_10  and  C_11 
REMARK    4  A    between atoms: C_23  and  C_24 
ROOT
HETATM    1  C   UNL     1       6.650  13.023  23.439  0.00  0.00     0.153 C 
HETATM    2  C   UNL     1       5.898  11.717  23.263  0.00  0.00    -0.020 A 
HETATM    3  C   UNL     1       6.429  10.442  23.086  0.00  0.00     0.010 A 
HETATM    4  C   UNL     1       5.575   9.344  23.162  0.00  0.00     0.001 A 
HETATM    5  C   UNL     1       4.220   9.527  23.448  0.00  0.00     0.001 A 
HETATM    6  C   UNL     1       3.694  10.813  23.625  0.00  0.00     0.013 A 
HETATM    7  C   UNL     1       4.514  11.927  23.494  0.00  0.00    -0.016 A 
HETATM    8  C   UNL     1       4.251  13.370  23.600  0.00  0.00    -0.003 A 
HETATM    9  C   UNL     1       5.516  14.033  23.483  0.00  0.00    -0.019 A 
HETATM   10  C   UNL     1       5.648  15.412  23.564  0.00  0.00     0.010 A 
HETATM   11  C   UNL     1       4.498  16.165  23.753  0.00  0.00     0.002 A 
HETATM   12  C   UNL     1       3.244  15.540  23.863  0.00  0.00     0.016 A 
HETATM   13  C   UNL     1       3.084  14.135  23.787  0.00  0.00     0.022 A 
ENDROOT
BRANCH   1  14
HETATM   14  N   UNL     1       7.725  13.292  22.503  0.00  0.00    -0.343 N 
HETATM   15  C   UNL     1       9.032  13.121  22.940  0.00  0.00     0.273 C 
HETATM   16  O   UNL     1       9.253  12.637  24.041  0.00  0.00    -0.266 OA
HETATM   17  H   UNL     1       7.539  13.701  21.592  0.00  0.00     0.163 HD
BRANCH  15  18
HETATM   18  C   UNL     1      10.172  13.536  22.049  0.00  0.00     0.150 A 
HETATM   19  C   UNL     1      10.591  14.862  22.002  0.00  0.00     0.086 A 
HETATM   20  C   UNL     1      11.659  15.100  21.171  0.00  0.00     0.146 A 
HETATM   21 CL   UNL     1       9.924  16.210  22.834  0.00  0.00    -0.080 Cl
HETATM   22  N   UNL     1      12.254  14.154  20.424  0.00  0.00    -0.229 NA
HETATM   23  C   UNL     1      11.753  12.919  20.504  0.00  0.00     0.199 A 
HETATM   24  N   UNL     1      10.743  12.544  21.303  0.00  0.00    -0.211 NA
BRANCH  23  25
HETATM   25  N   UNL     1      12.357  11.980  19.698  0.00  0.00    -0.271 NA
HETATM   26  H   UNL     1      13.362  12.013  19.827  0.00  0.00     0.127 HD
HETATM   27  H   UNL     1      11.912  11.079  19.762  0.00  0.00     0.127 HD
ENDBRANCH  23  25
ENDBRANCH  15  18
ENDBRANCH   1  14
BRANCH  13  28
HETATM   28  C   UNL     1       1.723  13.576  23.884  0.00  0.00     0.140 A 
HETATM   29  N   UNL     1       0.894  13.343  22.886  0.00  0.00    -0.227 NA
HETATM   30  C   UNL     1      -0.225  12.756  23.418  0.00  0.00     0.103 A 
HETATM   31  C   UNL     1      -1.355  12.222  22.793  0.00  0.00     0.150 A 
HETATM   32  C   UNL     1      -0.142  12.719  24.803  0.00  0.00     0.065 A 
HETATM   33  N   UNL     1      -2.369  11.709  23.538  0.00  0.00    -0.271 NA
HETATM   34  C   UNL     1      -2.260  11.732  24.888  0.00  0.00     0.118 A 
HETATM   35  C   UNL     1      -1.168  12.219  25.599  0.00  0.00     0.051 A 
HETATM   36  N   UNL     1       1.099  13.242  25.075  0.00  0.00    -0.338 N 
HETATM   37  H   UNL     1       1.508  13.331  25.993  0.00  0.00     0.167 HD
ENDBRANCH  13  28
TORSDOF 4
ENDMDL
MODEL 3
REMARK VINA RESULT:   -10.329      3.049      9.654
REMARK INTER + INTRA:         -13.186
REMARK INTER:                 -12.207
REMARK INTRA:                  -0.979
REMARK UNBOUND:                -0.744
REMARK  4 active torsions:
REMARK  status: ('A' for Active; 'I' for Inactive)
REMARK    1  A    between atoms: N_1  and  C_2 
REMARK    2  A    between atoms: C_7  and  C_8 
REMARK       I    between atoms: C_8  and  N_10 
REMARK    3  A    between atoms: N_10  and  C_11 
REMARK    4  A    between atoms: C_23  and  C_24 
ROOT
HETATM    1  C   UNL     1       6.584  13.000  23.429  0.00  0.00     0.153 C 
HETATM    2  C   UNL     1       5.873  11.667  23.285  0.00  0.00    -0.020 A 
HETATM    3  C   UNL     1       6.444  10.407  23.124  0.00  0.00     0.010 A 
HETATM    4  C   UNL     1       5.629   9.282  23.231  0.00  0.00     0.001 A 
HETATM    5  C   UNL     1       4.272   9.426  23.530  0.00  0.00     0.001 A 
HETATM    6  C   UNL     1       3.706  10.697  23.691  0.00  0.00     0.013 A 
HETATM    7  C   UNL     1       4.486  11.834  23.531  0.00  0.00    -0.016 A 
HETATM    8  C   UNL     1       4.176  13.270  23.615  0.00  0.00    -0.003 A 
HETATM    9  C   UNL     1       5.417  13.972  23.470  0.00  0.00    -0.019 A 
HETATM   10  C   UNL     1       5.504  15.356  23.525  0.00  0.00     0.010 A 
HETATM   11  C   UNL     1       4.332  16.074  23.716  0.00  0.00     0.002 A 
HETATM   12  C   UNL     1       3.101  15.410  23.853  0.00  0.00     0.016 A 
HETATM   13  C   UNL     1       2.987  13.999  23.804  0.00  0.00     0.022 A 
ENDROOT
BRANCH   1  14
HETATM   14  N   UNL     1       7.637  13.288  22.474  0.00  0.00    -0.343 N 
HETATM   15  C   UNL     1       8.947  13.312  22.934  0.00  0.00     0.273 C 
HETATM   16  O   UNL     1       9.203  12.977  24.081  0.00  0.00    -0.266 OA
HETATM   17  H   UNL     1       7.422  13.573  21.524  0.00  0.00     0.163 HD
BRANCH  15  18
HETATM   18  C   UNL     1      10.049  13.757  22.009  0.00  0.00     0.150 A 
HETATM   19  C   UNL     1      11.135  12.929  21.746  0.00  0.00     0.086 A 
HETATM   20  C   UNL     1      12.054  13.444  20.864  0.00  0.00     0.146 A 
HETATM   21 CL   UNL     1      11.460  11.374  22.403  0.00  0.00    -0.080 Cl
HETATM   22  N   UNL     1      11.955  14.663  20.305  0.00  0.00    -0.229 NA
HETATM   23  C   UNL     1      10.899  15.403  20.653  0.00  0.00     0.199 A 
HETATM   24  N   UNL     1       9.912  15.005  21.470  0.00  0.00    -0.211 NA
BRANCH  23  25
HETATM   25  N   UNL     1      10.847  16.661  20.096  0.00  0.00    -0.271 NA
HETATM   26  H   UNL     1      11.450  17.290  20.612  0.00  0.00     0.127 HD
HETATM   27  H   UNL     1      10.949  16.639  19.094  0.00  0.00     0.127 HD
ENDBRANCH  23  25
ENDBRANCH  15  18
ENDBRANCH   1  14
BRANCH  13  28
HETATM   28  C   UNL     1       1.646  13.397  23.928  0.00  0.00     0.140 A 
HETATM   29  N   UNL     1       1.067  12.986  25.038  0.00  0.00    -0.227 NA
HETATM   30  C   UNL     1      -0.195  12.566  24.704  0.00  0.00     0.103 A 
HETATM   31  C   UNL     1      -1.251  12.134  25.510  0.00  0.00     0.150 A 
HETATM   32  C   UNL     1      -0.375  12.615  23.329  0.00  0.00     0.065 A 
HETATM   33  N   UNL     1      -2.422  11.734  24.946  0.00  0.00    -0.271 NA
HETATM   34  C   UNL     1      -2.535  11.760  23.597  0.00  0.00     0.118 A 
HETATM   35  C   UNL     1      -1.551  12.195  22.714  0.00  0.00     0.051 A 
HETATM   36  N   UNL     1       0.803  13.144  22.858  0.00  0.00    -0.338 N 
HETATM   37  H   UNL     1       1.006  13.354  21.892  0.00  0.00     0.167 HD
ENDBRANCH  13  28
TORSDOF 4
ENDMDL
MODEL 4
REMARK VINA RESULT:    -9.968      1.427      1.978
REMARK INTER + INTRA:         -12.752
REMARK INTER:                 -12.072
REMARK INTRA:                  -0.680
REMARK UNBOUND:                -0.744
REMARK  4 active torsions:
REMARK  status: ('A' for Active; 'I' for Inactive)
REMARK    1  A    between atoms: N_1  and  C_2 
REMARK    2  A    between atoms: C_7  and  C_8 
REMARK       I    between atoms: C_8  and  N_10 
REMARK    3  A    between atoms: N_10  and  C_11 
REMARK    4  A    between atoms: C_23  and  C_24 
ROOT
HETATM    1  C   UNL     1       3.619  12.324  24.171  0.00  0.00     0.153 C 
HETATM    2  C   UNL     1       4.308  13.569  23.643  0.00  0.00    -0.020 A 
HETATM    3  C   UNL     1       3.866  14.888  23.719  0.00  0.00     0.010 A 
HETATM    4  C   UNL     1       4.745  15.910  23.369  0.00  0.00     0.001 A 
HETATM    5  C   UNL     1       6.055  15.609  22.987  0.00  0.00     0.001 A 
HETATM    6  C   UNL     1       6.491  14.280  22.914  0.00  0.00     0.013 A 
HETATM    7  C   UNL     1       5.615  13.241  23.200  0.00  0.00    -0.016 A 
HETATM    8  C   UNL     1       5.774  11.778  23.190  0.00  0.00    -0.003 A 
HETATM    9  C   UNL     1       4.551  11.225  23.691  0.00  0.00    -0.019 A 
HETATM   10  C   UNL     1       4.356   9.859  23.844  0.00  0.00     0.010 A 
HETATM   11  C   UNL     1       5.391   9.010  23.481  0.00  0.00     0.002 A 
HETATM   12  C   UNL     1       6.598   9.527  22.980  0.00  0.00     0.016 A 
HETATM   13  C   UNL     1       6.822  10.916  22.818  0.00  0.00     0.022 A 
ENDROOT
BRANCH   1  14
HETATM   14  N   UNL     1       2.212  12.169  23.853  0.00  0.00    -0.343 N 
HETATM   15  C   UNL     1       1.280  12.701  24.735  0.00  0.00     0.273 C 
HETATM   16  O   UNL     1       1.648  13.384  25.680  0.00  0.00    -0.266 OA
HETATM   17  H   UNL     1       1.909  11.595  23.072  0.00  0.00     0.163 HD
BRANCH  15  18
HETATM   18  C   UNL     1      -0.185  12.427  24.519  0.00  0.00     0.150 A 
HETATM   19  C   UNL     1      -0.762  12.594  23.265  0.00  0.00     0.086 A 
HETATM   20  C   UNL     1      -2.099  12.283  23.199  0.00  0.00     0.146 A 
HETATM   21 CL   UNL     1      -0.012  13.155  21.824  0.00  0.00    -0.080 Cl
HETATM   22  N   UNL     1      -2.827  11.877  24.254  0.00  0.00    -0.229 NA
HETATM   23  C   UNL     1      -2.194  11.788  25.426  0.00  0.00     0.199 A 
HETATM   24  N   UNL     1      -0.888  12.023  25.619  0.00  0.00    -0.211 NA
BRANCH  23  25
HETATM   25  N   UNL     1      -2.975  11.408  26.494  0.00  0.00    -0.271 NA
HETATM   26  H   UNL     1      -2.658  10.513  26.850  0.00  0.00     0.127 HD
HETATM   27  H   UNL     1      -3.099  12.152  27.161  0.00  0.00     0.127 HD
ENDBRANCH  23  25
ENDBRANCH  15  18
ENDBRANCH   1  14
BRANCH  13  28
HETATM   28  C   UNL     1       8.112  11.360  22.256  0.00  0.00     0.140 A 
HETATM   29  N   UNL     1       8.481  11.303  20.992  0.00  0.00    -0.227 NA
HETATM   30  C   UNL     1       9.719  11.887  20.906  0.00  0.00     0.103 A 
HETATM   31  C   UNL     1      10.512  12.173  19.792  0.00  0.00     0.150 A 
HETATM   32  C   UNL     1      10.186  12.223  22.169  0.00  0.00     0.065 A 
HETATM   33  N   UNL     1      11.737  12.740  19.953  0.00  0.00    -0.271 NA
HETATM   34  C   UNL     1      12.167  13.012  21.208  0.00  0.00     0.118 A 
HETATM   35  C   UNL     1      11.443  12.786  22.374  0.00  0.00     0.051 A 
HETATM   36  N   UNL     1       9.153  11.881  23.007  0.00  0.00    -0.338 N 
HETATM   37  H   UNL     1       9.137  12.025  24.006  0.00  0.00     0.167 HD
ENDBRANCH  13  28
TORSDOF 4
ENDMDL
MODEL 5
REMARK VINA RESULT:    -9.499      2.633      3.953
REMARK INTER + INTRA:         -12.186
REMARK INTER:                 -11.417
REMARK INTRA:                  -0.770
REMARK UNBOUND:                -0.744
REMARK  4 active torsions:
REMARK  status: ('A' for Active; 'I' for Inactive)
REMARK    1  A    between atoms: N_1  and  C_2 
REMARK    2  A    between atoms: C_7  and  C_8 
REMARK       I    between atoms: C_8  and  N_10 
REMARK    3  A    between atoms: N_10  and  C_11 
REMARK    4  A    between atoms: C_23  and  C_24 
ROOT
HETATM    1  C   UNL     1       3.137  13.285  23.212  0.00  0.00     0.153 C 
HETATM    2  C   UNL     1       4.286  12.455  22.669  0.00  0.00    -0.020 A 
HETATM    3  C   UNL     1       4.245  11.495  21.661  0.00  0.00     0.010 A 
HETATM    4  C   UNL     1       5.445  11.001  21.157  0.00  0.00     0.001 A 
HETATM    5  C   UNL     1       6.663  11.492  21.635  0.00  0.00     0.001 A 
HETATM    6  C   UNL     1       6.694  12.458  22.650  0.00  0.00     0.013 A 
HETATM    7  C   UNL     1       5.511  12.922  23.209  0.00  0.00    -0.016 A 
HETATM    8  C   UNL     1       5.234  13.895  24.278  0.00  0.00    -0.003 A 
HETATM    9  C   UNL     1       3.811  14.051  24.338  0.00  0.00    -0.019 A 
HETATM   10  C   UNL     1       3.191  14.920  25.225  0.00  0.00     0.010 A 
HETATM   11  C   UNL     1       3.994  15.650  26.089  0.00  0.00     0.002 A 
HETATM   12  C   UNL     1       5.393  15.510  26.055  0.00  0.00     0.016 A 
HETATM   13  C   UNL     1       6.048  14.632  25.157  0.00  0.00     0.022 A 
ENDROOT
BRANCH   1  14
HETATM   14  N   UNL     1       1.916  12.577  23.546  0.00  0.00    -0.343 N 
HETATM   15  C   UNL     1       0.719  13.279  23.497  0.00  0.00     0.273 C 
HETATM   16  O   UNL     1       0.693  14.422  23.064  0.00  0.00    -0.266 OA
HETATM   17  H   UNL     1       1.940  11.631  23.912  0.00  0.00     0.163 HD
BRANCH  15  18
HETATM   18  C   UNL     1      -0.546  12.622  23.984  0.00  0.00     0.150 A 
HETATM   19  C   UNL     1      -1.589  12.349  23.105  0.00  0.00     0.086 A 
HETATM   20  C   UNL     1      -2.672  11.723  23.673  0.00  0.00     0.146 A 
HETATM   21 CL   UNL     1      -1.681  12.718  21.429  0.00  0.00    -0.080 Cl
HETATM   22  N   UNL     1      -2.761  11.413  24.978  0.00  0.00    -0.229 NA
HETATM   23  C   UNL     1      -1.727  11.755  25.750  0.00  0.00     0.199 A 
HETATM   24  N   UNL     1      -0.596  12.332  25.318  0.00  0.00    -0.211 NA
BRANCH  23  25
HETATM   25  N   UNL     1      -1.863  11.461  27.088  0.00  0.00    -0.271 NA
HETATM   26  H   UNL     1      -2.543  10.720  27.210  0.00  0.00     0.127 HD
HETATM   27  H   UNL     1      -0.973  11.351  27.548  0.00  0.00     0.127 HD
ENDBRANCH  23  25
ENDBRANCH  15  18
ENDBRANCH   1  14
BRANCH  13  28
HETATM   28  C   UNL     1       7.519  14.533  25.219  0.00  0.00     0.140 A 
HETATM   29  N   UNL     1       8.226  13.862  26.106  0.00  0.00    -0.227 NA
HETATM   30  C   UNL     1       9.544  13.982  25.745  0.00  0.00     0.103 A 
HETATM   31  C   UNL     1      10.689  13.389  26.282  0.00  0.00     0.150 A 
HETATM   32  C   UNL     1       9.676  14.842  24.665  0.00  0.00     0.065 A 
HETATM   33  N   UNL     1      11.915  13.682  25.771  0.00  0.00    -0.271 NA
HETATM   34  C   UNL     1      11.996  14.559  24.742  0.00  0.00     0.118 A 
HETATM   35  C   UNL     1      10.914  15.182  24.127  0.00  0.00     0.051 A 
HETATM   36  N   UNL     1       8.382  15.178  24.347  0.00  0.00    -0.338 N 
HETATM   37  H   UNL     1       8.102  15.767  23.578  0.00  0.00     0.167 HD
ENDBRANCH  13  28
TORSDOF 4
ENDMDL
MODEL 6
REMARK VINA RESULT:    -9.488      2.067      3.696
REMARK INTER + INTRA:         -12.173
REMARK INTER:                 -11.355
REMARK INTRA:                  -0.818
REMARK UNBOUND:                -0.744
REMARK  4 active torsions:
REMARK  status: ('A' for Active; 'I' for Inactive)
REMARK    1  A    between atoms: N_1  and  C_2 
REMARK    2  A    between atoms: C_7  and  C_8 
REMARK       I    between atoms: C_8  and  N_10 
REMARK    3  A    between atoms: N_10  and  C_11 
REMARK    4  A    between atoms: C_23  and  C_24 
ROOT
HETATM    1  C   UNL     1       3.396  12.481  22.965  0.00  0.00     0.153 C 
HETATM    2  C   UNL     1       4.490  11.484  22.628  0.00  0.00    -0.020 A 
HETATM    3  C   UNL     1       4.356  10.120  22.384  0.00  0.00     0.010 A 
HETATM    4  C   UNL     1       5.449   9.420  21.877  0.00  0.00     0.001 A 
HETATM    5  C   UNL     1       6.640  10.091  21.588  0.00  0.00     0.001 A 
HETATM    6  C   UNL     1       6.765  11.464  21.837  0.00  0.00     0.013 A 
HETATM    7  C   UNL     1       5.710  12.171  22.398  0.00  0.00    -0.016 A 
HETATM    8  C   UNL     1       5.556  13.582  22.785  0.00  0.00    -0.003 A 
HETATM    9  C   UNL     1       4.196  13.752  23.204  0.00  0.00    -0.019 A 
HETATM   10  C   UNL     1       3.688  14.975  23.616  0.00  0.00     0.010 A 
HETATM   11  C   UNL     1       4.546  16.065  23.629  0.00  0.00     0.002 A 
HETATM   12  C   UNL     1       5.886  15.924  23.230  0.00  0.00     0.016 A 
HETATM   13  C   UNL     1       6.427  14.687  22.802  0.00  0.00     0.022 A 
ENDROOT
BRANCH   1  14
HETATM   14  N   UNL     1       2.457  12.099  24.002  0.00  0.00    -0.343 N 
HETATM   15  C   UNL     1       1.134  12.498  23.865  0.00  0.00     0.273 C 
HETATM   16  O   UNL     1       0.760  13.046  22.838  0.00  0.00    -0.266 OA
HETATM   17  H   UNL     1       2.771  11.652  24.857  0.00  0.00     0.163 HD
BRANCH  15  18
HETATM   18  C   UNL     1       0.165  12.254  24.992  0.00  0.00     0.150 A 
HETATM   19  C   UNL     1      -0.667  11.140  24.985  0.00  0.00     0.086 A 
HETATM   20  C   UNL     1      -1.482  11.021  26.085  0.00  0.00     0.146 A 
HETATM   21 CL   UNL     1      -0.804   9.932  23.770  0.00  0.00    -0.080 Cl
HETATM   22  N   UNL     1      -1.517  11.912  27.091  0.00  0.00    -0.229 NA
HETATM   23  C   UNL     1      -0.712  12.972  26.987  0.00  0.00     0.199 A 
HETATM   24  N   UNL     1       0.158  13.188  25.989  0.00  0.00    -0.211 NA
BRANCH  23  25
HETATM   25  N   UNL     1      -0.799  13.886  28.013  0.00  0.00    -0.271 NA
HETATM   26  H   UNL     1      -0.737  14.827  27.641  0.00  0.00     0.127 HD
HETATM   27  H   UNL     1      -1.562  13.686  28.639  0.00  0.00     0.127 HD
ENDBRANCH  23  25
ENDBRANCH  15  18
ENDBRANCH   1  14
BRANCH  13  28
HETATM   28  C   UNL     1       7.854  14.633  22.432  0.00  0.00     0.140 A 
HETATM   29  N   UNL     1       8.779  13.862  22.967  0.00  0.00    -0.227 NA
HETATM   30  C   UNL     1       9.941  14.084  22.274  0.00  0.00     0.103 A 
HETATM   31  C   UNL     1      11.187  13.458  22.368  0.00  0.00     0.150 A 
HETATM   32  C   UNL     1       9.768  15.103  21.349  0.00  0.00     0.065 A 
HETATM   33  N   UNL     1      12.219  13.871  21.585  0.00  0.00    -0.271 NA
HETATM   34  C   UNL     1      12.013  14.898  20.726  0.00  0.00     0.118 A 
HETATM   35  C   UNL     1      10.806  15.566  20.545  0.00  0.00     0.051 A 
HETATM   36  N   UNL     1       8.440  15.435  21.465  0.00  0.00    -0.338 N 
HETATM   37  H   UNL     1       7.958  16.124  20.908  0.00  0.00     0.167 HD
ENDBRANCH  13  28
TORSDOF 4
ENDMDL
MODEL 7
REMARK VINA RESULT:    -9.478      2.316      3.790
REMARK INTER + INTRA:         -12.161
REMARK INTER:                 -11.258
REMARK INTRA:                  -0.904
REMARK UNBOUND:                -0.744
REMARK  4 active torsions:
REMARK  status: ('A' for Active; 'I' for Inactive)
REMARK    1  A    between atoms: N_1  and  C_2 
REMARK    2  A    between atoms: C_7  and  C_8 
REMARK       I    between atoms: C_8  and  N_10 
REMARK    3  A    between atoms: N_10  and  C_11 
REMARK    4  A    between atoms: C_23  and  C_24 
ROOT
HETATM    1  C   UNL     1       3.409  12.316  22.744  0.00  0.00     0.153 C 
HETATM    2  C   UNL     1       4.570  11.467  22.261  0.00  0.00    -0.020 A 
HETATM    3  C   UNL     1       4.534  10.152  21.802  0.00  0.00     0.010 A 
HETATM    4  C   UNL     1       5.672   9.622  21.198  0.00  0.00     0.001 A 
HETATM    5  C   UNL     1       6.810  10.415  21.029  0.00  0.00     0.001 A 
HETATM    6  C   UNL     1       6.838  11.736  21.494  0.00  0.00     0.013 A 
HETATM    7  C   UNL     1       5.736  12.267  22.152  0.00  0.00    -0.016 A 
HETATM    8  C   UNL     1       5.482  13.584  22.757  0.00  0.00    -0.003 A 
HETATM    9  C   UNL     1       4.116  13.586  23.187  0.00  0.00    -0.019 A 
HETATM   10  C   UNL     1       3.522  14.689  23.785  0.00  0.00     0.010 A 
HETATM   11  C   UNL     1       4.300  15.822  23.977  0.00  0.00     0.002 A 
HETATM   12  C   UNL     1       5.645  15.843  23.571  0.00  0.00     0.016 A 
HETATM   13  C   UNL     1       6.272  14.731  22.956  0.00  0.00     0.022 A 
ENDROOT
BRANCH   1  14
HETATM   14  N   UNL     1       2.503  11.708  23.700  0.00  0.00    -0.343 N 
HETATM   15  C   UNL     1       1.153  12.016  23.609  0.00  0.00     0.273 C 
HETATM   16  O   UNL     1       0.736  12.682  22.672  0.00  0.00    -0.266 OA
HETATM   17  H   UNL     1       2.853  11.162  24.481  0.00  0.00     0.163 HD
BRANCH  15  18
HETATM   18  C   UNL     1       0.208  11.527  24.675  0.00  0.00     0.150 A 
HETATM   19  C   UNL     1      -0.711  12.391  25.261  0.00  0.00     0.086 A 
HETATM   20  C   UNL     1      -1.532  11.811  26.198  0.00  0.00     0.146 A 
HETATM   21 CL   UNL     1      -0.916  14.072  24.968  0.00  0.00    -0.080 Cl
HETATM   22  N   UNL     1      -1.456  10.519  26.564  0.00  0.00    -0.229 NA
HETATM   23  C   UNL     1      -0.513   9.779  25.976  0.00  0.00     0.199 A 
HETATM   24  N   UNL     1       0.324  10.210  25.021  0.00  0.00    -0.211 NA
BRANCH  23  25
HETATM   25  N   UNL     1      -0.435   8.472  26.399  0.00  0.00    -0.271 NA
HETATM   26  H   UNL     1       0.091   7.924  25.728  0.00  0.00     0.127 HD
HETATM   27  H   UNL     1      -0.166   8.399  27.367  0.00  0.00     0.127 HD
ENDBRANCH  23  25
ENDBRANCH  15  18
ENDBRANCH   1  14
BRANCH  13  28
HETATM   28  C   UNL     1       7.697  14.840  22.593  0.00  0.00     0.140 A 
HETATM   29  N   UNL     1       8.725  14.404  23.293  0.00  0.00    -0.227 NA
HETATM   30  C   UNL     1       9.852  14.648  22.552  0.00  0.00     0.103 A 
HETATM   31  C   UNL     1      11.184  14.297  22.784  0.00  0.00     0.150 A 
HETATM   32  C   UNL     1       9.534  15.354  21.401  0.00  0.00     0.065 A 
HETATM   33  N   UNL     1      12.154  14.676  21.909  0.00  0.00    -0.271 NA
HETATM   34  C   UNL     1      11.799  15.400  20.821  0.00  0.00     0.118 A 
HETATM   35  C   UNL     1      10.500  15.777  20.493  0.00  0.00     0.051 A 
HETATM   36  N   UNL     1       8.165  15.464  21.447  0.00  0.00    -0.338 N 
HETATM   37  H   UNL     1       7.588  15.895  20.740  0.00  0.00     0.167 HD
ENDBRANCH  13  28
TORSDOF 4
ENDMDL
MODEL 8
REMARK VINA RESULT:    -9.291      3.368      9.445
REMARK INTER + INTRA:         -11.936
REMARK INTER:                 -11.192
REMARK INTRA:                  -0.744
REMARK UNBOUND:                -0.744
REMARK  4 active torsions:
REMARK  status: ('A' for Active; 'I' for Inactive)
REMARK    1  A    between atoms: N_1  and  C_2 
REMARK    2  A    between atoms: C_7  and  C_8 
REMARK       I    between atoms: C_8  and  N_10 
REMARK    3  A    between atoms: N_10  and  C_11 
REMARK    4  A    between atoms: C_23  and  C_24 
ROOT
HETATM    1  C   UNL     1       6.506  13.005  23.542  0.00  0.00     0.153 C 
HETATM    2  C   UNL     1       5.467  14.083  23.790  0.00  0.00    -0.020 A 
HETATM    3  C   UNL     1       5.645  15.464  23.763  0.00  0.00     0.010 A 
HETATM    4  C   UNL     1       4.521  16.286  23.801  0.00  0.00     0.001 A 
HETATM    5  C   UNL     1       3.242  15.724  23.827  0.00  0.00     0.001 A 
HETATM    6  C   UNL     1       3.072  14.334  23.854  0.00  0.00     0.013 A 
HETATM    7  C   UNL     1       4.179  13.496  23.878  0.00  0.00    -0.016 A 
HETATM    8  C   UNL     1       4.313  12.031  23.927  0.00  0.00    -0.003 A 
HETATM    9  C   UNL     1       5.711  11.738  23.811  0.00  0.00    -0.019 A 
HETATM   10  C   UNL     1       6.204  10.442  23.796  0.00  0.00     0.010 A 
HETATM   11  C   UNL     1       5.296   9.399  23.910  0.00  0.00     0.002 A 
HETATM   12  C   UNL     1       3.920   9.659  24.032  0.00  0.00     0.016 A 
HETATM   13  C   UNL     1       3.393  10.974  24.047  0.00  0.00     0.022 A 
ENDROOT
BRANCH   1  14
HETATM   14  N   UNL     1       7.771  13.140  24.240  0.00  0.00    -0.343 N 
HETATM   15  C   UNL     1       8.903  13.431  23.491  0.00  0.00     0.273 C 
HETATM   16  O   UNL     1       8.803  13.686  22.300  0.00  0.00    -0.266 OA
HETATM   17  H   UNL     1       7.852  12.920  25.228  0.00  0.00     0.163 HD
BRANCH  15  18
HETATM   18  C   UNL     1      10.254  13.426  24.157  0.00  0.00     0.150 A 
HETATM   19  C   UNL     1      10.947  14.614  24.366  0.00  0.00     0.086 A 
HETATM   20  C   UNL     1      12.153  14.472  25.009  0.00  0.00     0.146 A 
HETATM   21 CL   UNL     1      10.483  16.203  23.903  0.00  0.00    -0.080 Cl
HETATM   22  N   UNL     1      12.665  13.288  25.389  0.00  0.00    -0.229 NA
HETATM   23  C   UNL     1      11.946  12.200  25.105  0.00  0.00     0.199 A 
HETATM   24  N   UNL     1      10.739  12.202  24.520  0.00  0.00    -0.211 NA
BRANCH  23  25
HETATM   25  N   UNL     1      12.514  11.001  25.472  0.00  0.00    -0.271 NA
HETATM   26  H   UNL     1      11.954  10.234  25.119  0.00  0.00     0.127 HD
HETATM   27  H   UNL     1      13.504  10.975  25.285  0.00  0.00     0.127 HD
ENDBRANCH  23  25
ENDBRANCH  15  18
ENDBRANCH   1  14
BRANCH  13  28
HETATM   28  C   UNL     1       1.936  11.145  24.210  0.00  0.00     0.140 A 
HETATM   29  N   UNL     1       1.180  10.606  25.144  0.00  0.00    -0.227 NA
HETATM   30  C   UNL     1      -0.091  11.089  24.964  0.00  0.00     0.103 A 
HETATM   31  C   UNL     1      -1.245  10.916  25.732  0.00  0.00     0.150 A 
HETATM   32  C   UNL     1      -0.156  11.869  23.819  0.00  0.00     0.065 A 
HETATM   33  N   UNL     1      -2.419  11.477  25.337  0.00  0.00    -0.271 NA
HETATM   34  C   UNL     1      -2.442  12.196  24.189  0.00  0.00     0.118 A 
HETATM   35  C   UNL     1      -1.343  12.443  23.372  0.00  0.00     0.051 A 
HETATM   36  N   UNL     1       1.138  11.892  23.358  0.00  0.00    -0.338 N 
HETATM   37  H   UNL     1       1.464  12.403  22.552  0.00  0.00     0.167 HD
ENDBRANCH  13  28
TORSDOF 4
ENDMDL
MODEL 9
REMARK VINA RESULT:    -9.274      3.157      9.285
REMARK INTER + INTRA:         -11.916
REMARK INTER:                 -11.376
REMARK INTRA:                  -0.540
REMARK UNBOUND:                -0.744
REMARK  4 active torsions:
REMARK  status: ('A' for Active; 'I' for Inactive)
REMARK    1  A    between atoms: N_1  and  C_2 
REMARK    2  A    between atoms: C_7  and  C_8 
REMARK       I    between atoms: C_8  and  N_10 
REMARK    3  A    between atoms: N_10  and  C_11 
REMARK    4  A    between atoms: C_23  and  C_24 
ROOT
HETATM    1  C   UNL     1       6.539  13.390  22.340  0.00  0.00     0.153 C 
HETATM    2  C   UNL     1       5.543  14.269  23.074  0.00  0.00    -0.020 A 
HETATM    3  C   UNL     1       5.606  15.646  23.277  0.00  0.00     0.010 A 
HETATM    4  C   UNL     1       4.486  16.300  23.785  0.00  0.00     0.001 A 
HETATM    5  C   UNL     1       3.315  15.584  24.049  0.00  0.00     0.001 A 
HETATM    6  C   UNL     1       3.261  14.200  23.842  0.00  0.00     0.013 A 
HETATM    7  C   UNL     1       4.384  13.517  23.392  0.00  0.00    -0.016 A 
HETATM    8  C   UNL     1       4.632  12.095  23.109  0.00  0.00    -0.003 A 
HETATM    9  C   UNL     1       5.951  12.005  22.558  0.00  0.00    -0.019 A 
HETATM   10  C   UNL     1       6.511  10.804  22.147  0.00  0.00     0.010 A 
HETATM   11  C   UNL     1       5.754   9.650  22.295  0.00  0.00     0.002 A 
HETATM   12  C   UNL     1       4.460   9.709  22.839  0.00  0.00     0.016 A 
HETATM   13  C   UNL     1       3.866  10.924  23.262  0.00  0.00     0.022 A 
ENDROOT
BRANCH   1  14
HETATM   14  N   UNL     1       7.940  13.563  22.677  0.00  0.00    -0.343 N 
HETATM   15  C   UNL     1       8.721  14.350  21.841  0.00  0.00     0.273 C 
HETATM   16  O   UNL     1       8.205  14.973  20.924  0.00  0.00    -0.266 OA
HETATM   17  H   UNL     1       8.367  13.038  23.433  0.00  0.00     0.163 HD
BRANCH  15  18
HETATM   18  C   UNL     1      10.207  14.427  22.071  0.00  0.00     0.150 A 
HETATM   19  C   UNL     1      10.722  15.099  23.174  0.00  0.00     0.086 A 
HETATM   20  C   UNL     1      12.091  15.069  23.280  0.00  0.00     0.146 A 
HETATM   21 CL   UNL     1       9.856  15.962  24.383  0.00  0.00    -0.080 Cl
HETATM   22  N   UNL     1      12.900  14.473  22.387  0.00  0.00    -0.229 NA
HETATM   23  C   UNL     1      12.315  13.891  21.337  0.00  0.00     0.199 A 
HETATM   24  N   UNL     1      10.991  13.814  21.135  0.00  0.00    -0.211 NA
BRANCH  23  25
HETATM   25  N   UNL     1      13.170  13.323  20.420  0.00  0.00    -0.271 NA
HETATM   26  H   UNL     1      12.844  13.516  19.481  0.00  0.00     0.127 HD
HETATM   27  H   UNL     1      14.136  13.523  20.624  0.00  0.00     0.127 HD
ENDBRANCH  23  25
ENDBRANCH  15  18
ENDBRANCH   1  14
BRANCH  13  28
HETATM   28  C   UNL     1       2.514  10.879  23.849  0.00  0.00     0.140 A 
HETATM   29  N   UNL     1       2.058   9.990  24.709  0.00  0.00    -0.227 NA
HETATM   30  C   UNL     1       0.782  10.369  25.043  0.00  0.00     0.103 A 
HETATM   31  C   UNL     1      -0.106   9.837  25.981  0.00  0.00     0.150 A 
HETATM   32  C   UNL     1       0.388  11.465  24.289  0.00  0.00     0.065 A 
HETATM   33  N   UNL     1      -1.350  10.368  26.122  0.00  0.00    -0.271 NA
HETATM   34  C   UNL     1      -1.703  11.412  25.335  0.00  0.00     0.118 A 
HETATM   35  C   UNL     1      -0.883  12.024  24.392  0.00  0.00     0.051 A 
HETATM   36  N   UNL     1       1.499  11.772  23.542  0.00  0.00    -0.338 N 
HETATM   37  H   UNL     1       1.579  12.547  22.901  0.00  0.00     0.167 HD
ENDBRANCH  13  28
TORSDOF 4
ENDMDL
