REMARK  4 active torsions:
REMARK  status: ('A' for Active; 'I' for Inactive)
REMARK    1  A    between atoms: N_1  and  C_2 
REMARK    2  A    between atoms: C_7  and  C_8 
REMARK       I    between atoms: C_8  and  N_10 
REMARK    3  A    between atoms: N_10  and  C_11 
REMARK    4  A    between atoms: C_23  and  C_24 
ROOT
HETATM    1  C   UNL     1       5.593  -4.793   0.074  0.00  0.00     0.153 C 
HETATM    2  C   UNL     1       5.166  -6.166  -0.412  0.00  0.00    -0.020 A 
HETATM    3  C   UNL     1       4.663  -6.511  -1.664  0.00  0.00     0.010 A 
HETATM    4  C   UNL     1       4.536  -7.860  -1.987  0.00  0.00     0.001 A 
HETATM    5  C   UNL     1       4.943  -8.840  -1.078  0.00  0.00     0.001 A 
HETATM    6  C   UNL     1       5.448  -8.484   0.179  0.00  0.00     0.013 A 
HETATM    7  C   UNL     1       5.528  -7.147   0.546  0.00  0.00    -0.016 A 
HETATM    8  C   UNL     1       5.984  -6.482   1.777  0.00  0.00    -0.003 A 
HETATM    9  C   UNL     1       5.944  -5.072   1.526  0.00  0.00    -0.019 A 
HETATM   10  C   UNL     1       6.335  -4.133   2.470  0.00  0.00     0.010 A 
HETATM   11  C   UNL     1       6.768  -4.594   3.705  0.00  0.00     0.002 A 
HETATM   12  C   UNL     1       6.810  -5.972   3.979  0.00  0.00     0.016 A 
HETATM   13  C   UNL     1       6.419  -6.949   3.031  0.00  0.00     0.022 A 
ENDROOT
BRANCH   1  14
HETATM   14  N   UNL     1       4.678  -3.695  -0.175  0.00  0.00    -0.343 N 
HETATM   15  C   UNL     1       4.796  -3.005  -1.374  0.00  0.00     0.273 C 
HETATM   16  O   UNL     1       5.567  -3.399  -2.237  0.00  0.00    -0.266 OA
HETATM   17  H   UNL     1       4.044  -3.365   0.546  0.00  0.00     0.163 HD
BRANCH  15  18
HETATM   18  C   UNL     1       3.969  -1.767  -1.601  0.00  0.00     0.150 A 
HETATM   19  C   UNL     1       4.106  -1.025  -2.769  0.00  0.00     0.086 A 
HETATM   20  C   UNL     1       3.273   0.064  -2.862  0.00  0.00     0.146 A 
HETATM   21 CL   UNL     1       5.192  -1.299  -4.073  0.00  0.00    -0.080 Cl
HETATM   22  N   UNL     1       2.405   0.428  -1.902  0.00  0.00    -0.229 NA
HETATM   23  C   UNL     1       2.377  -0.322  -0.798  0.00  0.00     0.199 A 
HETATM   24  N   UNL     1       3.106  -1.430  -0.597  0.00  0.00    -0.211 NA
BRANCH  23  25
HETATM   25  N   UNL     1       1.507   0.098   0.183  0.00  0.00    -0.271 NA
HETATM   26  H   UNL     1       0.801   0.703  -0.220  0.00  0.00     0.127 HD
HETATM   27  H   UNL     1       1.189  -0.662   0.762  0.00  0.00     0.127 HD
ENDBRANCH  23  25
ENDBRANCH  15  18
ENDBRANCH   1  14
BRANCH  13  28
HETATM   28  C   UNL     1       6.470  -8.370   3.424  0.00  0.00     0.140 A 
HETATM   29  N   UNL     1       5.653  -9.326   3.030  0.00  0.00    -0.227 NA
HETATM   30  C   UNL     1       6.109 -10.498   3.577  0.00  0.00     0.103 A 
HETATM   31  C   UNL     1       5.672 -11.813   3.399  0.00  0.00     0.150 A 
HETATM   32  C   UNL     1       7.179 -10.254   4.426  0.00  0.00     0.065 A 
HETATM   33  N   UNL     1       6.268 -12.829   4.078  0.00  0.00    -0.271 NA
HETATM   34  C   UNL     1       7.282 -12.536   4.927  0.00  0.00     0.118 A 
HETATM   35  C   UNL     1       7.801 -11.265   5.153  0.00  0.00     0.051 A 
HETATM   36  N   UNL     1       7.391  -8.901   4.313  0.00  0.00    -0.338 N 
HETATM   37  H   UNL     1       8.125  -8.383   4.772  0.00  0.00     0.167 HD
ENDBRANCH  13  28
TORSDOF 4
