MODEL 1
REMARK VINA RESULT:    -7.753      0.000      0.000
REMARK INTER + INTRA:         -12.593
REMARK INTER:                 -10.862
REMARK INTRA:                  -1.731
REMARK UNBOUND:                -1.667
REMARK  8 active torsions:
REMARK  status: ('A' for Active; 'I' for Inactive)
REMARK    1  A    between atoms: C_2  and  N_3 
REMARK       I    between atoms: N_3  and  C_4 
REMARK    2  A    between atoms: C_4  and  C_6 
REMARK    3  A    between atoms: C_9  and  C_24 
REMARK    4  A    between atoms: C_10  and  C_11 
REMARK    5  A    between atoms: C_14  and  C_15 
REMARK    6  A    between atoms: C_15  and  N_16 
REMARK    7  A    between atoms: C_28  and  O_29 
REMARK    8  A    between atoms: C_31  and  O_32 
ROOT
HETATM    1  C   UNL     1       7.898  13.822  21.167  0.00  0.00     0.165 A 
HETATM    2  N   UNL     1       8.062  15.133  21.395  0.00  0.00    -0.121 NA
HETATM    3  O   UNL     1       7.042  15.505  22.224  0.00  0.00    -0.211 OA
HETATM    4  C   UNL     1       6.262  14.433  22.555  0.00  0.00     0.128 A 
HETATM    5  C   UNL     1       6.728  13.319  21.850  0.00  0.00     0.048 A 
ENDROOT
BRANCH   5   6
HETATM    6  C   UNL     1       6.297  11.933  22.069  0.00  0.00    -0.021 C 
HETATM    7  C   UNL     1       7.180  10.940  22.522  0.00  0.00     0.013 C 
HETATM    8  C   UNL     1       6.896   9.586  22.296  0.00  0.00     0.010 C 
HETATM    9  C   UNL     1       5.679   9.202  21.722  0.00  0.00    -0.030 C 
HETATM   10  C   UNL     1       4.707  10.179  21.505  0.00  0.00     0.010 C 
HETATM   11  C   UNL     1       5.023  11.526  21.655  0.00  0.00     0.013 C 
BRANCH   9  12
HETATM   12  C   UNL     1       5.437   7.808  21.188  0.00  0.00     0.311 C 
BRANCH  12  13
HETATM   13  N   UNL     1       4.380   7.695  20.178  0.00  0.00     0.096 N 
HETATM   14  C   UNL     1       4.882   7.183  18.884  0.00  0.00     0.299 C 
HETATM   15  C   UNL     1       5.266   5.694  18.898  0.00  0.00     0.198 C 
HETATM   16  O   UNL     1       4.175   4.878  19.341  0.00  0.00    -0.388 OA
HETATM   17  C   UNL     1       3.724   5.284  20.636  0.00  0.00     0.198 C 
HETATM   18  C   UNL     1       3.322   6.772  20.655  0.00  0.00     0.299 C 
ENDBRANCH  12  13
ENDBRANCH   9  12
ENDBRANCH   5   6
BRANCH   1  19
HETATM   19  C   UNL     1       8.928  13.103  20.407  0.00  0.00     0.273 C 
HETATM   20  N   UNL     1      10.059  12.808  21.151  0.00  0.00    -0.356 N 
HETATM   21  H   UNL     1      10.083  13.154  22.105  0.00  0.00     0.162 HD
HETATM   22  O   UNL     1       8.780  12.729  19.244  0.00  0.00    -0.266 OA
BRANCH  20  23
HETATM   23  C   UNL     1      11.104  11.930  20.681  0.00  0.00     0.118 C 
HETATM   24  C   UNL     1      10.801  10.471  20.980  0.00  0.00     0.026 C 
ENDBRANCH  20  23
ENDBRANCH   1  19
BRANCH   4  25
HETATM   25  C   UNL     1       5.286  14.752  23.617  0.00  0.00     0.036 A 
HETATM   26  C   UNL     1       3.906  14.593  23.402  0.00  0.00     0.044 A 
HETATM   27  C   UNL     1       2.975  14.849  24.413  0.00  0.00     0.068 A 
HETATM   28 CL   UNL     1       1.290  14.742  24.063  0.00  0.00    -0.081 Cl
HETATM   29  C   UNL     1       3.410  15.184  25.691  0.00  0.00     0.090 A 
HETATM   30  C   UNL     1       4.766  15.322  25.952  0.00  0.00     0.075 A 
HETATM   31  C   UNL     1       5.688  15.136  24.916  0.00  0.00     0.081 A 
BRANCH  29  32
HETATM   32  O   UNL     1       2.543  15.376  26.730  0.00  0.00    -0.359 OA
HETATM   33  H   UNL     1       3.077  15.453  27.544  0.00  0.00     0.217 HD
ENDBRANCH  29  32
BRANCH  31  34
HETATM   34  O   UNL     1       7.016  15.336  25.192  0.00  0.00    -0.360 OA
HETATM   35  H   UNL     1       7.110  15.796  26.042  0.00  0.00     0.217 HD
ENDBRANCH  31  34
ENDBRANCH   4  25
TORSDOF 8
ENDMDL
MODEL 2
REMARK VINA RESULT:    -7.548      2.432      3.053
REMARK INTER + INTRA:         -12.304
REMARK INTER:                 -10.256
REMARK INTRA:                  -2.048
REMARK UNBOUND:                -1.667
REMARK  8 active torsions:
REMARK  status: ('A' for Active; 'I' for Inactive)
REMARK    1  A    between atoms: C_2  and  N_3 
REMARK       I    between atoms: N_3  and  C_4 
REMARK    2  A    between atoms: C_4  and  C_6 
REMARK    3  A    between atoms: C_9  and  C_24 
REMARK    4  A    between atoms: C_10  and  C_11 
REMARK    5  A    between atoms: C_14  and  C_15 
REMARK    6  A    between atoms: C_15  and  N_16 
REMARK    7  A    between atoms: C_28  and  O_29 
REMARK    8  A    between atoms: C_31  and  O_32 
ROOT
HETATM    1  C   UNL     1       8.070  14.037  21.172  0.00  0.00     0.165 A 
HETATM    2  N   UNL     1       8.173  15.350  21.424  0.00  0.00    -0.121 NA
HETATM    3  O   UNL     1       7.125  15.662  22.243  0.00  0.00    -0.211 OA
HETATM    4  C   UNL     1       6.388  14.551  22.544  0.00  0.00     0.128 A 
HETATM    5  C   UNL     1       6.913  13.471  21.827  0.00  0.00     0.048 A 
ENDROOT
BRANCH   5   6
HETATM    6  C   UNL     1       6.541  12.064  22.016  0.00  0.00    -0.021 C 
HETATM    7  C   UNL     1       5.384  11.515  21.443  0.00  0.00     0.013 C 
HETATM    8  C   UNL     1       4.812  10.353  21.981  0.00  0.00     0.010 C 
HETATM    9  C   UNL     1       5.449   9.663  23.018  0.00  0.00    -0.030 C 
HETATM   10  C   UNL     1       6.721  10.078  23.412  0.00  0.00     0.010 C 
HETATM   11  C   UNL     1       7.247  11.275  22.933  0.00  0.00     0.013 C 
BRANCH   9  12
HETATM   12  C   UNL     1       4.753   8.593  23.829  0.00  0.00     0.311 C 
BRANCH  12  13
HETATM   13  N   UNL     1       4.453   8.950  25.219  0.00  0.00     0.096 N 
HETATM   14  C   UNL     1       3.553  10.120  25.324  0.00  0.00     0.299 C 
HETATM   15  C   UNL     1       2.101   9.841  24.901  0.00  0.00     0.198 C 
HETATM   16  O   UNL     1       1.544   8.745  25.636  0.00  0.00    -0.388 OA
HETATM   17  C   UNL     1       2.339   7.566  25.480  0.00  0.00     0.198 C 
HETATM   18  C   UNL     1       3.800   7.808  25.905  0.00  0.00     0.299 C 
ENDBRANCH  12  13
ENDBRANCH   9  12
ENDBRANCH   5   6
BRANCH   1  19
HETATM   19  C   UNL     1       9.142  13.377  20.416  0.00  0.00     0.273 C 
HETATM   20  N   UNL     1      10.231  13.023  21.197  0.00  0.00    -0.356 N 
HETATM   21  H   UNL     1      10.200  13.292  22.175  0.00  0.00     0.162 HD
HETATM   22  O   UNL     1       9.061  13.096  19.222  0.00  0.00    -0.266 OA
BRANCH  20  23
HETATM   23  C   UNL     1      11.301  12.181  20.718  0.00  0.00     0.118 C 
HETATM   24  C   UNL     1      11.024  10.707  20.967  0.00  0.00     0.026 C 
ENDBRANCH  20  23
ENDBRANCH   1  19
BRANCH   4  25
HETATM   25  C   UNL     1       5.383  14.809  23.595  0.00  0.00     0.036 A 
HETATM   26  C   UNL     1       4.010  14.643  23.339  0.00  0.00     0.044 A 
HETATM   27  C   UNL     1       3.052  14.841  24.338  0.00  0.00     0.068 A 
HETATM   28 CL   UNL     1       1.378  14.730  23.942  0.00  0.00    -0.081 Cl
HETATM   29  C   UNL     1       3.452  15.121  25.640  0.00  0.00     0.090 A 
HETATM   30  C   UNL     1       4.799  15.263  25.941  0.00  0.00     0.075 A 
HETATM   31  C   UNL     1       5.749  15.136  24.920  0.00  0.00     0.081 A 
BRANCH  29  32
HETATM   32  O   UNL     1       2.558  15.253  26.665  0.00  0.00    -0.359 OA
HETATM   33  H   UNL     1       2.742  16.107  27.103  0.00  0.00     0.217 HD
ENDBRANCH  29  32
BRANCH  31  34
HETATM   34  O   UNL     1       7.066  15.339  25.237  0.00  0.00    -0.360 OA
HETATM   35  H   UNL     1       7.629  15.066  24.495  0.00  0.00     0.217 HD
ENDBRANCH  31  34
ENDBRANCH   4  25
TORSDOF 8
ENDMDL
MODEL 3
REMARK VINA RESULT:    -7.433      2.912      6.283
REMARK INTER + INTRA:         -12.141
REMARK INTER:                 -10.265
REMARK INTRA:                  -1.876
REMARK UNBOUND:                -1.667
REMARK  8 active torsions:
REMARK  status: ('A' for Active; 'I' for Inactive)
REMARK    1  A    between atoms: C_2  and  N_3 
REMARK       I    between atoms: N_3  and  C_4 
REMARK    2  A    between atoms: C_4  and  C_6 
REMARK    3  A    between atoms: C_9  and  C_24 
REMARK    4  A    between atoms: C_10  and  C_11 
REMARK    5  A    between atoms: C_14  and  C_15 
REMARK    6  A    between atoms: C_15  and  N_16 
REMARK    7  A    between atoms: C_28  and  O_29 
REMARK    8  A    between atoms: C_31  and  O_32 
ROOT
HETATM    1  C   UNL     1       9.286  12.768  21.737  0.00  0.00     0.165 A 
HETATM    2  N   UNL     1       9.729  11.813  20.908  0.00  0.00    -0.121 NA
HETATM    3  O   UNL     1       8.789  10.823  20.932  0.00  0.00    -0.211 OA
HETATM    4  C   UNL     1       7.737  11.163  21.735  0.00  0.00     0.128 A 
HETATM    5  C   UNL     1       8.027  12.390  22.340  0.00  0.00     0.048 A 
ENDROOT
BRANCH   5   6
HETATM    6  C   UNL     1       7.081  13.201  23.115  0.00  0.00    -0.021 C 
HETATM    7  C   UNL     1       6.688  12.849  24.416  0.00  0.00     0.013 C 
HETATM    8  C   UNL     1       5.490  13.344  24.950  0.00  0.00     0.010 C 
HETATM    9  C   UNL     1       4.732  14.283  24.242  0.00  0.00    -0.030 C 
HETATM   10  C   UNL     1       5.258  14.812  23.064  0.00  0.00     0.010 C 
HETATM   11  C   UNL     1       6.404  14.261  22.499  0.00  0.00     0.013 C 
BRANCH   9  12
HETATM   12  C   UNL     1       3.308  14.628  24.619  0.00  0.00     0.311 C 
BRANCH  12  13
HETATM   13  N   UNL     1       2.282  14.203  23.662  0.00  0.00     0.096 N 
HETATM   14  C   UNL     1       2.366  12.761  23.339  0.00  0.00     0.299 C 
HETATM   15  C   UNL     1       1.930  11.831  24.483  0.00  0.00     0.198 C 
HETATM   16  O   UNL     1       0.605  12.141  24.931  0.00  0.00    -0.388 OA
HETATM   17  C   UNL     1       0.510  13.508  25.343  0.00  0.00     0.198 C 
HETATM   18  C   UNL     1       0.932  14.469  24.216  0.00  0.00     0.299 C 
ENDBRANCH  12  13
ENDBRANCH   9  12
ENDBRANCH   5   6
BRANCH   1  19
HETATM   19  C   UNL     1      10.028  14.033  21.821  0.00  0.00     0.273 C 
HETATM   20  N   UNL     1      10.448  14.343  23.105  0.00  0.00    -0.356 N 
HETATM   21  H   UNL     1      10.166  13.709  23.845  0.00  0.00     0.162 HD
HETATM   22  O   UNL     1      10.317  14.719  20.842  0.00  0.00    -0.266 OA
BRANCH  20  23
HETATM   23  C   UNL     1      11.367  15.418  23.393  0.00  0.00     0.118 C 
HETATM   24  C   UNL     1      10.651  16.742  23.600  0.00  0.00     0.026 C 
ENDBRANCH  20  23
ENDBRANCH   1  19
BRANCH   4  25
HETATM   25  C   UNL     1       6.607  10.219  21.615  0.00  0.00     0.036 A 
HETATM   26  C   UNL     1       6.015   9.650  22.757  0.00  0.00     0.044 A 
HETATM   27  C   UNL     1       4.918   8.790  22.659  0.00  0.00     0.068 A 
HETATM   28 CL   UNL     1       4.301   8.036  24.081  0.00  0.00    -0.081 Cl
HETATM   29  C   UNL     1       4.329   8.551  21.422  0.00  0.00     0.090 A 
HETATM   30  C   UNL     1       4.864   9.118  20.274  0.00  0.00     0.075 A 
HETATM   31  C   UNL     1       6.008   9.919  20.371  0.00  0.00     0.081 A 
BRANCH  29  32
HETATM   32  O   UNL     1       3.213   7.775  21.283  0.00  0.00    -0.359 OA
HETATM   33  H   UNL     1       3.240   7.384  20.388  0.00  0.00     0.217 HD
ENDBRANCH  29  32
BRANCH  31  34
HETATM   34  O   UNL     1       6.547  10.416  19.213  0.00  0.00    -0.360 OA
HETATM   35  H   UNL     1       7.402   9.991  19.038  0.00  0.00     0.217 HD
ENDBRANCH  31  34
ENDBRANCH   4  25
TORSDOF 8
ENDMDL
MODEL 4
REMARK VINA RESULT:    -7.419      3.418      6.481
REMARK INTER + INTRA:         -12.122
REMARK INTER:                 -10.318
REMARK INTRA:                  -1.804
REMARK UNBOUND:                -1.667
REMARK  8 active torsions:
REMARK  status: ('A' for Active; 'I' for Inactive)
REMARK    1  A    between atoms: C_2  and  N_3 
REMARK       I    between atoms: N_3  and  C_4 
REMARK    2  A    between atoms: C_4  and  C_6 
REMARK    3  A    between atoms: C_9  and  C_24 
REMARK    4  A    between atoms: C_10  and  C_11 
REMARK    5  A    between atoms: C_14  and  C_15 
REMARK    6  A    between atoms: C_15  and  N_16 
REMARK    7  A    between atoms: C_28  and  O_29 
REMARK    8  A    between atoms: C_31  and  O_32 
ROOT
HETATM    1  C   UNL     1       7.888  13.068  22.534  0.00  0.00     0.165 A 
HETATM    2  N   UNL     1       8.644  12.423  21.634  0.00  0.00    -0.121 NA
HETATM    3  O   UNL     1       7.973  11.272  21.331  0.00  0.00    -0.211 OA
HETATM    4  C   UNL     1       6.782  11.206  21.998  0.00  0.00     0.128 A 
HETATM    5  C   UNL     1       6.695  12.315  22.847  0.00  0.00     0.048 A 
ENDROOT
BRANCH   5   6
HETATM    6  C   UNL     1       5.496  12.727  23.586  0.00  0.00    -0.021 C 
HETATM    7  C   UNL     1       5.122  12.124  24.797  0.00  0.00     0.013 C 
HETATM    8  C   UNL     1       3.794  12.194  25.241  0.00  0.00     0.010 C 
HETATM    9  C   UNL     1       2.852  12.959  24.545  0.00  0.00    -0.030 C 
HETATM   10  C   UNL     1       3.291  13.754  23.486  0.00  0.00     0.010 C 
HETATM   11  C   UNL     1       4.589  13.619  23.001  0.00  0.00     0.013 C 
BRANCH   9  12
HETATM   12  C   UNL     1       1.366  12.842  24.794  0.00  0.00     0.311 C 
BRANCH  12  13
HETATM   13  N   UNL     1       0.677  11.803  24.021  0.00  0.00     0.096 N 
HETATM   14  C   UNL     1       0.126  10.728  24.876  0.00  0.00     0.299 C 
HETATM   15  C   UNL     1      -1.090  11.150  25.718  0.00  0.00     0.198 C 
HETATM   16  O   UNL     1      -2.133  11.685  24.896  0.00  0.00    -0.388 OA
HETATM   17  C   UNL     1      -1.660  12.792  24.123  0.00  0.00     0.198 C 
HETATM   18  C   UNL     1      -0.446  12.401  23.259  0.00  0.00     0.299 C 
ENDBRANCH  12  13
ENDBRANCH   9  12
ENDBRANCH   5   6
BRANCH   1  19
HETATM   19  C   UNL     1       8.288  14.416  22.957  0.00  0.00     0.273 C 
HETATM   20  N   UNL     1       9.234  14.419  23.970  0.00  0.00    -0.356 N 
HETATM   21  H   UNL     1       9.510  13.516  24.341  0.00  0.00     0.162 HD
HETATM   22  O   UNL     1       7.885  15.447  22.421  0.00  0.00    -0.266 OA
BRANCH  20  23
HETATM   23  C   UNL     1       9.927  15.612  24.395  0.00  0.00     0.118 C 
HETATM   24  C   UNL     1      11.226  15.820  23.634  0.00  0.00     0.026 C 
ENDBRANCH  20  23
ENDBRANCH   1  19
BRANCH   4  25
HETATM   25  C   UNL     1       5.935  10.090  21.533  0.00  0.00     0.036 A 
HETATM   26  C   UNL     1       5.182   9.325  22.441  0.00  0.00     0.044 A 
HETATM   27  C   UNL     1       4.343   8.294  22.008  0.00  0.00     0.068 A 
HETATM   28 CL   UNL     1       3.526   7.319  23.172  0.00  0.00    -0.081 Cl
HETATM   29  C   UNL     1       4.169   8.063  20.648  0.00  0.00     0.090 A 
HETATM   30  C   UNL     1       4.871   8.816  19.717  0.00  0.00     0.075 A 
HETATM   31  C   UNL     1       5.766   9.797  20.160  0.00  0.00     0.081 A 
BRANCH  29  32
HETATM   32  O   UNL     1       3.307   7.115  20.174  0.00  0.00    -0.359 OA
HETATM   33  H   UNL     1       3.814   6.287  20.071  0.00  0.00     0.217 HD
ENDBRANCH  29  32
BRANCH  31  34
HETATM   34  O   UNL     1       6.487  10.484  19.219  0.00  0.00    -0.360 OA
HETATM   35  H   UNL     1       5.968  10.567  18.403  0.00  0.00     0.217 HD
ENDBRANCH  31  34
ENDBRANCH   4  25
TORSDOF 8
ENDMDL
MODEL 5
REMARK VINA RESULT:    -7.390      2.276      3.471
REMARK INTER + INTRA:         -12.081
REMARK INTER:                 -10.601
REMARK INTRA:                  -1.480
REMARK UNBOUND:                -1.667
REMARK  8 active torsions:
REMARK  status: ('A' for Active; 'I' for Inactive)
REMARK    1  A    between atoms: C_2  and  N_3 
REMARK       I    between atoms: N_3  and  C_4 
REMARK    2  A    between atoms: C_4  and  C_6 
REMARK    3  A    between atoms: C_9  and  C_24 
REMARK    4  A    between atoms: C_10  and  C_11 
REMARK    5  A    between atoms: C_14  and  C_15 
REMARK    6  A    between atoms: C_15  and  N_16 
REMARK    7  A    between atoms: C_28  and  O_29 
REMARK    8  A    between atoms: C_31  and  O_32 
ROOT
HETATM    1  C   UNL     1       5.477  15.022  23.485  0.00  0.00     0.165 A 
HETATM    2  N   UNL     1       4.829  16.125  23.886  0.00  0.00    -0.121 NA
HETATM    3  O   UNL     1       3.512  15.776  23.985  0.00  0.00    -0.211 OA
HETATM    4  C   UNL     1       3.330  14.453  23.693  0.00  0.00     0.128 A 
HETATM    5  C   UNL     1       4.561  13.920  23.298  0.00  0.00     0.048 A 
ENDROOT
BRANCH   5   6
HETATM    6  C   UNL     1       4.843  12.494  23.093  0.00  0.00    -0.021 C 
HETATM    7  C   UNL     1       5.574  12.029  21.989  0.00  0.00     0.013 C 
HETATM    8  C   UNL     1       5.448  10.697  21.569  0.00  0.00     0.010 C 
HETATM    9  C   UNL     1       4.687   9.788  22.311  0.00  0.00    -0.030 C 
HETATM   10  C   UNL     1       4.170  10.198  23.540  0.00  0.00     0.010 C 
HETATM   11  C   UNL     1       4.228  11.538  23.912  0.00  0.00     0.013 C 
BRANCH   9  12
HETATM   12  C   UNL     1       4.275   8.438  21.766  0.00  0.00     0.311 C 
BRANCH  12  13
HETATM   13  N   UNL     1       5.248   7.793  20.880  0.00  0.00     0.096 N 
HETATM   14  C   UNL     1       5.643   6.447  21.351  0.00  0.00     0.299 C 
HETATM   15  C   UNL     1       4.545   5.380  21.207  0.00  0.00     0.198 C 
HETATM   16  O   UNL     1       4.076   5.291  19.857  0.00  0.00    -0.388 OA
HETATM   17  C   UNL     1       3.596   6.558  19.397  0.00  0.00     0.198 C 
HETATM   18  C   UNL     1       4.676   7.651  19.519  0.00  0.00     0.299 C 
ENDBRANCH  12  13
ENDBRANCH   9  12
ENDBRANCH   5   6
BRANCH   1  19
HETATM   19  C   UNL     1       6.943  15.051  23.415  0.00  0.00     0.273 C 
HETATM   20  N   UNL     1       7.431  15.236  22.131  0.00  0.00    -0.356 N 
HETATM   21  H   UNL     1       6.747  15.283  21.383  0.00  0.00     0.162 HD
HETATM   22  O   UNL     1       7.674  14.990  24.402  0.00  0.00    -0.266 OA
BRANCH  20  23
HETATM   23  C   UNL     1       8.821  15.508  21.850  0.00  0.00     0.118 C 
HETATM   24  C   UNL     1       9.368  14.608  20.754  0.00  0.00     0.026 C 
ENDBRANCH  20  23
ENDBRANCH   1  19
BRANCH   4  25
HETATM   25  C   UNL     1       1.962  13.990  24.000  0.00  0.00     0.036 A 
HETATM   26  C   UNL     1       1.096  13.562  22.978  0.00  0.00     0.044 A 
HETATM   27  C   UNL     1      -0.186  13.081  23.260  0.00  0.00     0.068 A 
HETATM   28 CL   UNL     1      -1.243  12.672  21.961  0.00  0.00    -0.081 Cl
HETATM   29  C   UNL     1      -0.598  12.931  24.579  0.00  0.00     0.090 A 
HETATM   30  C   UNL     1       0.238  13.313  25.619  0.00  0.00     0.075 A 
HETATM   31  C   UNL     1       1.491  13.863  25.327  0.00  0.00     0.081 A 
BRANCH  29  32
HETATM   32  O   UNL     1      -1.814  12.399  24.907  0.00  0.00    -0.359 OA
HETATM   33  H   UNL     1      -2.456  12.709  24.240  0.00  0.00     0.217 HD
ENDBRANCH  29  32
BRANCH  31  34
HETATM   34  O   UNL     1       2.270  14.284  26.373  0.00  0.00    -0.360 OA
HETATM   35  H   UNL     1       1.897  15.096  26.755  0.00  0.00     0.217 HD
ENDBRANCH  31  34
ENDBRANCH   4  25
TORSDOF 8
ENDMDL
MODEL 6
REMARK VINA RESULT:    -7.324      3.612      6.148
REMARK INTER + INTRA:         -11.989
REMARK INTER:                 -10.262
REMARK INTRA:                  -1.727
REMARK UNBOUND:                -1.667
REMARK  8 active torsions:
REMARK  status: ('A' for Active; 'I' for Inactive)
REMARK    1  A    between atoms: C_2  and  N_3 
REMARK       I    between atoms: N_3  and  C_4 
REMARK    2  A    between atoms: C_4  and  C_6 
REMARK    3  A    between atoms: C_9  and  C_24 
REMARK    4  A    between atoms: C_10  and  C_11 
REMARK    5  A    between atoms: C_14  and  C_15 
REMARK    6  A    between atoms: C_15  and  N_16 
REMARK    7  A    between atoms: C_28  and  O_29 
REMARK    8  A    between atoms: C_31  and  O_32 
ROOT
HETATM    1  C   UNL     1       6.143  10.860  20.302  0.00  0.00     0.165 A 
HETATM    2  N   UNL     1       7.270  11.072  19.609  0.00  0.00    -0.121 NA
HETATM    3  O   UNL     1       7.892  12.130  20.211  0.00  0.00    -0.211 OA
HETATM    4  C   UNL     1       7.188  12.558  21.302  0.00  0.00     0.128 A 
HETATM    5  C   UNL     1       6.007  11.814  21.379  0.00  0.00     0.048 A 
ENDROOT
BRANCH   5   6
HETATM    6  C   UNL     1       5.071  11.821  22.510  0.00  0.00    -0.021 C 
HETATM    7  C   UNL     1       4.856  10.686  23.308  0.00  0.00     0.013 C 
HETATM    8  C   UNL     1       3.678  10.563  24.057  0.00  0.00     0.010 C 
HETATM    9  C   UNL     1       2.757  11.615  24.111  0.00  0.00    -0.030 C 
HETATM   10  C   UNL     1       3.098  12.830  23.517  0.00  0.00     0.010 C 
HETATM   11  C   UNL     1       4.228  12.921  22.709  0.00  0.00     0.013 C 
BRANCH   9  12
HETATM   12  C   UNL     1       1.354  11.440  24.648  0.00  0.00     0.311 C 
BRANCH  12  13
HETATM   13  N   UNL     1       0.416  12.519  24.324  0.00  0.00     0.096 N 
HETATM   14  C   UNL     1      -0.537  12.143  23.256  0.00  0.00     0.299 C 
HETATM   15  C   UNL     1      -1.598  11.116  23.687  0.00  0.00     0.198 C 
HETATM   16  O   UNL     1      -2.325  11.569  24.835  0.00  0.00    -0.388 OA
HETATM   17  C   UNL     1      -1.441  11.852  25.923  0.00  0.00     0.198 C 
HETATM   18  C   UNL     1      -0.369  12.886  25.527  0.00  0.00     0.299 C 
ENDBRANCH  12  13
ENDBRANCH   9  12
ENDBRANCH   5   6
BRANCH   1  19
HETATM   19  C   UNL     1       5.319   9.691  19.969  0.00  0.00     0.273 C 
HETATM   20  N   UNL     1       5.711   8.534  20.624  0.00  0.00    -0.356 N 
HETATM   21  H   UNL     1       6.536   8.598  21.212  0.00  0.00     0.162 HD
HETATM   22  O   UNL     1       4.330   9.739  19.239  0.00  0.00    -0.266 OA
BRANCH  20  23
HETATM   23  C   UNL     1       4.928   7.322  20.617  0.00  0.00     0.118 C 
HETATM   24  C   UNL     1       3.919   7.287  21.754  0.00  0.00     0.026 C 
ENDBRANCH  20  23
ENDBRANCH   1  19
BRANCH   4  25
HETATM   25  C   UNL     1       7.935  13.551  22.100  0.00  0.00     0.036 A 
HETATM   26  C   UNL     1       8.246  13.308  23.450  0.00  0.00     0.044 A 
HETATM   27  C   UNL     1       8.990  14.220  24.203  0.00  0.00     0.068 A 
HETATM   28 CL   UNL     1       9.249  13.922  25.882  0.00  0.00    -0.081 Cl
HETATM   29  C   UNL     1       9.518  15.355  23.599  0.00  0.00     0.090 A 
HETATM   30  C   UNL     1       9.260  15.617  22.261  0.00  0.00     0.075 A 
HETATM   31  C   UNL     1       8.452  14.737  21.531  0.00  0.00     0.081 A 
BRANCH  29  32
HETATM   32  O   UNL     1      10.310  16.241  24.275  0.00  0.00    -0.359 OA
HETATM   33  H   UNL     1      10.979  16.572  23.646  0.00  0.00     0.217 HD
ENDBRANCH  29  32
BRANCH  31  34
HETATM   34  O   UNL     1       8.168  15.053  20.228  0.00  0.00    -0.360 OA
HETATM   35  H   UNL     1       7.955  14.245  19.733  0.00  0.00     0.217 HD
ENDBRANCH  31  34
ENDBRANCH   4  25
TORSDOF 8
ENDMDL
MODEL 7
REMARK VINA RESULT:    -7.267      3.089      3.975
REMARK INTER + INTRA:         -11.907
REMARK INTER:                  -9.951
REMARK INTRA:                  -1.956
REMARK UNBOUND:                -1.667
REMARK  8 active torsions:
REMARK  status: ('A' for Active; 'I' for Inactive)
REMARK    1  A    between atoms: C_2  and  N_3 
REMARK       I    between atoms: N_3  and  C_4 
REMARK    2  A    between atoms: C_4  and  C_6 
REMARK    3  A    between atoms: C_9  and  C_24 
REMARK    4  A    between atoms: C_10  and  C_11 
REMARK    5  A    between atoms: C_14  and  C_15 
REMARK    6  A    between atoms: C_15  and  N_16 
REMARK    7  A    between atoms: C_28  and  O_29 
REMARK    8  A    between atoms: C_31  and  O_32 
ROOT
HETATM    1  C   UNL     1       5.936  14.950  23.018  0.00  0.00     0.165 A 
HETATM    2  N   UNL     1       5.353  16.119  23.319  0.00  0.00    -0.121 NA
HETATM    3  O   UNL     1       4.053  15.828  23.619  0.00  0.00    -0.211 OA
HETATM    4  C   UNL     1       3.821  14.483  23.553  0.00  0.00     0.128 A 
HETATM    5  C   UNL     1       4.991  13.860  23.104  0.00  0.00     0.048 A 
ENDROOT
BRANCH   5   6
HETATM    6  C   UNL     1       5.229  12.412  23.086  0.00  0.00    -0.021 C 
HETATM    7  C   UNL     1       4.862  11.610  21.994  0.00  0.00     0.013 C 
HETATM    8  C   UNL     1       4.675  10.231  22.163  0.00  0.00     0.010 C 
HETATM    9  C   UNL     1       4.961   9.620  23.389  0.00  0.00    -0.030 C 
HETATM   10  C   UNL     1       5.561  10.384  24.390  0.00  0.00     0.010 C 
HETATM   11  C   UNL     1       5.670  11.765  24.246  0.00  0.00     0.013 C 
BRANCH   9  12
HETATM   12  C   UNL     1       4.509   8.216  23.722  0.00  0.00     0.311 C 
BRANCH  12  13
HETATM   13  N   UNL     1       3.080   7.952  23.529  0.00  0.00     0.096 N 
HETATM   14  C   UNL     1       2.741   6.518  23.667  0.00  0.00     0.299 C 
HETATM   15  C   UNL     1       2.821   5.986  25.107  0.00  0.00     0.198 C 
HETATM   16  O   UNL     1       2.000   6.755  25.994  0.00  0.00    -0.388 OA
HETATM   17  C   UNL     1       2.363   8.138  25.958  0.00  0.00     0.198 C 
HETATM   18  C   UNL     1       2.285   8.707  24.528  0.00  0.00     0.299 C 
ENDBRANCH  12  13
ENDBRANCH   9  12
ENDBRANCH   5   6
BRANCH   1  19
HETATM   19  C   UNL     1       7.384  14.924  22.777  0.00  0.00     0.273 C 
HETATM   20  N   UNL     1       8.139  15.038  23.934  0.00  0.00    -0.356 N 
HETATM   21  H   UNL     1       7.630  15.175  24.801  0.00  0.00     0.162 HD
HETATM   22  O   UNL     1       7.888  14.745  21.669  0.00  0.00    -0.266 OA
BRANCH  20  23
HETATM   23  C   UNL     1       9.566  14.827  23.966  0.00  0.00     0.118 C 
HETATM   24  C   UNL     1      10.336  16.136  24.046  0.00  0.00     0.026 C 
ENDBRANCH  20  23
ENDBRANCH   1  19
BRANCH   4  25
HETATM   25  C   UNL     1       2.493  14.112  24.080  0.00  0.00     0.036 A 
HETATM   26  C   UNL     1       1.556  13.441  23.275  0.00  0.00     0.044 A 
HETATM   27  C   UNL     1       0.312  13.046  23.776  0.00  0.00     0.068 A 
HETATM   28 CL   UNL     1      -0.839  12.324  22.715  0.00  0.00    -0.081 Cl
HETATM   29  C   UNL     1       0.012  13.232  25.120  0.00  0.00     0.090 A 
HETATM   30  C   UNL     1       0.922  13.863  25.957  0.00  0.00     0.075 A 
HETATM   31  C   UNL     1       2.136  14.323  25.431  0.00  0.00     0.081 A 
BRANCH  29  32
HETATM   32  O   UNL     1      -1.161  12.800  25.673  0.00  0.00    -0.359 OA
HETATM   33  H   UNL     1      -0.954  12.017  26.218  0.00  0.00     0.217 HD
ENDBRANCH  29  32
BRANCH  31  34
HETATM   34  O   UNL     1       2.988  14.993  26.269  0.00  0.00    -0.360 OA
HETATM   35  H   UNL     1       2.571  15.815  26.574  0.00  0.00     0.217 HD
ENDBRANCH  31  34
ENDBRANCH   4  25
TORSDOF 8
ENDMDL
MODEL 8
REMARK VINA RESULT:    -7.204      3.301      4.679
REMARK INTER + INTRA:         -11.818
REMARK INTER:                 -10.513
REMARK INTRA:                  -1.306
REMARK UNBOUND:                -1.667
REMARK  8 active torsions:
REMARK  status: ('A' for Active; 'I' for Inactive)
REMARK    1  A    between atoms: C_2  and  N_3 
REMARK       I    between atoms: N_3  and  C_4 
REMARK    2  A    between atoms: C_4  and  C_6 
REMARK    3  A    between atoms: C_9  and  C_24 
REMARK    4  A    between atoms: C_10  and  C_11 
REMARK    5  A    between atoms: C_14  and  C_15 
REMARK    6  A    between atoms: C_15  and  N_16 
REMARK    7  A    between atoms: C_28  and  O_29 
REMARK    8  A    between atoms: C_31  and  O_32 
ROOT
HETATM    1  C   UNL     1       3.940  14.574  23.854  0.00  0.00     0.165 A 
HETATM    2  N   UNL     1       3.044  15.532  24.130  0.00  0.00    -0.121 NA
HETATM    3  O   UNL     1       1.815  14.946  24.018  0.00  0.00    -0.211 OA
HETATM    4  C   UNL     1       1.929  13.618  23.716  0.00  0.00     0.128 A 
HETATM    5  C   UNL     1       3.285  13.327  23.532  0.00  0.00     0.048 A 
ENDROOT
BRANCH   5   6
HETATM    6  C   UNL     1       3.854  11.981  23.393  0.00  0.00    -0.021 C 
HETATM    7  C   UNL     1       4.560  11.585  22.246  0.00  0.00     0.013 C 
HETATM    8  C   UNL     1       4.691  10.225  21.933  0.00  0.00     0.010 C 
HETATM    9  C   UNL     1       4.224   9.244  22.815  0.00  0.00    -0.030 C 
HETATM   10  C   UNL     1       3.749   9.644  24.064  0.00  0.00     0.010 C 
HETATM   11  C   UNL     1       3.546  10.994  24.337  0.00  0.00     0.013 C 
BRANCH   9  12
HETATM   12  C   UNL     1       4.069   7.795  22.412  0.00  0.00     0.311 C 
BRANCH  12  13
HETATM   13  N   UNL     1       3.753   7.565  20.998  0.00  0.00     0.096 N 
HETATM   14  C   UNL     1       4.933   7.141  20.212  0.00  0.00     0.299 C 
HETATM   15  C   UNL     1       5.416   5.713  20.516  0.00  0.00     0.198 C 
HETATM   16  O   UNL     1       4.362   4.758  20.342  0.00  0.00    -0.388 OA
HETATM   17  C   UNL     1       3.235   5.084  21.162  0.00  0.00     0.198 C 
HETATM   18  C   UNL     1       2.720   6.508  20.877  0.00  0.00     0.299 C 
ENDBRANCH  12  13
ENDBRANCH   9  12
ENDBRANCH   5   6
BRANCH   1  19
HETATM   19  C   UNL     1       5.368  14.873  24.023  0.00  0.00     0.273 C 
HETATM   20  N   UNL     1       6.112  14.685  22.868  0.00  0.00    -0.356 N 
HETATM   21  H   UNL     1       5.618  14.322  22.059  0.00  0.00     0.162 HD
HETATM   22  O   UNL     1       5.853  15.316  25.062  0.00  0.00    -0.266 OA
BRANCH  20  23
HETATM   23  C   UNL     1       7.484  15.113  22.739  0.00  0.00     0.118 C 
HETATM   24  C   UNL     1       8.011  14.921  21.326  0.00  0.00     0.026 C 
ENDBRANCH  20  23
ENDBRANCH   1  19
BRANCH   4  25
HETATM   25  C   UNL     1       0.638  12.907  23.801  0.00  0.00     0.036 A 
HETATM   26  C   UNL     1       0.122  12.490  25.041  0.00  0.00     0.044 A 
HETATM   27  C   UNL     1      -1.119  11.855  25.140  0.00  0.00     0.068 A 
HETATM   28 CL   UNL     1      -1.653  11.269  26.671  0.00  0.00    -0.081 Cl
HETATM   29  C   UNL     1      -1.915  11.704  24.010  0.00  0.00     0.090 A 
HETATM   30  C   UNL     1      -1.456  12.129  22.771  0.00  0.00     0.075 A 
HETATM   31  C   UNL     1      -0.181  12.697  22.668  0.00  0.00     0.081 A 
BRANCH  29  32
HETATM   32  O   UNL     1      -3.165  11.154  24.067  0.00  0.00    -0.359 OA
HETATM   33  H   UNL     1      -3.117  10.384  24.665  0.00  0.00     0.217 HD
ENDBRANCH  29  32
BRANCH  31  34
HETATM   34  O   UNL     1       0.267  13.054  21.423  0.00  0.00    -0.360 OA
HETATM   35  H   UNL     1       0.593  12.269  20.954  0.00  0.00     0.217 HD
ENDBRANCH  31  34
ENDBRANCH   4  25
TORSDOF 8
ENDMDL
MODEL 9
REMARK VINA RESULT:    -7.128      1.728      2.152
REMARK INTER + INTRA:         -11.712
REMARK INTER:                 -10.045
REMARK INTRA:                  -1.667
REMARK UNBOUND:                -1.667
REMARK  8 active torsions:
REMARK  status: ('A' for Active; 'I' for Inactive)
REMARK    1  A    between atoms: C_2  and  N_3 
REMARK       I    between atoms: N_3  and  C_4 
REMARK    2  A    between atoms: C_4  and  C_6 
REMARK    3  A    between atoms: C_9  and  C_24 
REMARK    4  A    between atoms: C_10  and  C_11 
REMARK    5  A    between atoms: C_14  and  C_15 
REMARK    6  A    between atoms: C_15  and  N_16 
REMARK    7  A    between atoms: C_28  and  O_29 
REMARK    8  A    between atoms: C_31  and  O_32 
ROOT
HETATM    1  C   UNL     1       8.181  14.143  21.147  0.00  0.00     0.165 A 
HETATM    2  N   UNL     1       8.246  15.456  21.410  0.00  0.00    -0.121 NA
HETATM    3  O   UNL     1       7.185  15.733  22.224  0.00  0.00    -0.211 OA
HETATM    4  C   UNL     1       6.476  14.600  22.512  0.00  0.00     0.128 A 
HETATM    5  C   UNL     1       7.036  13.540  21.790  0.00  0.00     0.048 A 
ENDROOT
BRANCH   5   6
HETATM    6  C   UNL     1       6.701  12.122  21.966  0.00  0.00    -0.021 C 
HETATM    7  C   UNL     1       5.446  11.603  21.615  0.00  0.00     0.013 C 
HETATM    8  C   UNL     1       4.991  10.406  22.188  0.00  0.00     0.010 C 
HETATM    9  C   UNL     1       5.826   9.658  23.024  0.00  0.00    -0.030 C 
HETATM   10  C   UNL     1       7.155  10.054  23.167  0.00  0.00     0.010 C 
HETATM   11  C   UNL     1       7.578  11.282  22.664  0.00  0.00     0.013 C 
BRANCH   9  12
HETATM   12  C   UNL     1       5.308   8.535  23.895  0.00  0.00     0.311 C 
BRANCH  12  13
HETATM   13  N   UNL     1       4.897   7.322  23.181  0.00  0.00     0.096 N 
HETATM   14  C   UNL     1       5.920   6.851  22.222  0.00  0.00     0.299 C 
HETATM   15  C   UNL     1       7.173   6.247  22.879  0.00  0.00     0.198 C 
HETATM   16  O   UNL     1       6.831   5.180  23.772  0.00  0.00    -0.388 OA
HETATM   17  C   UNL     1       5.912   5.625  24.774  0.00  0.00     0.198 C 
HETATM   18  C   UNL     1       4.640   6.228  24.149  0.00  0.00     0.299 C 
ENDBRANCH  12  13
ENDBRANCH   9  12
ENDBRANCH   5   6
BRANCH   1  19
HETATM   19  C   UNL     1       9.275  13.519  20.393  0.00  0.00     0.273 C 
HETATM   20  N   UNL     1      10.502  13.596  21.034  0.00  0.00    -0.356 N 
HETATM   21  H   UNL     1      10.529  14.105  21.912  0.00  0.00     0.162 HD
HETATM   22  O   UNL     1       9.117  12.920  19.331  0.00  0.00    -0.266 OA
BRANCH  20  23
HETATM   23  C   UNL     1      11.669  12.873  20.588  0.00  0.00     0.118 C 
HETATM   24  C   UNL     1      12.291  12.048  21.703  0.00  0.00     0.026 C 
ENDBRANCH  20  23
ENDBRANCH   1  19
BRANCH   4  25
HETATM   25  C   UNL     1       5.458  14.821  23.558  0.00  0.00     0.036 A 
HETATM   26  C   UNL     1       4.090  14.654  23.283  0.00  0.00     0.044 A 
HETATM   27  C   UNL     1       3.119  14.818  24.276  0.00  0.00     0.068 A 
HETATM   28 CL   UNL     1       1.450  14.708  23.858  0.00  0.00    -0.081 Cl
HETATM   29  C   UNL     1       3.503  15.063  25.589  0.00  0.00     0.090 A 
HETATM   30  C   UNL     1       4.845  15.205  25.909  0.00  0.00     0.075 A 
HETATM   31  C   UNL     1       5.807  15.114  24.896  0.00  0.00     0.081 A 
BRANCH  29  32
HETATM   32  O   UNL     1       2.596  15.161  26.608  0.00  0.00    -0.359 OA
HETATM   33  H   UNL     1       2.255  14.263  26.781  0.00  0.00     0.217 HD
ENDBRANCH  29  32
BRANCH  31  34
HETATM   34  O   UNL     1       7.120  15.316  25.234  0.00  0.00    -0.360 OA
HETATM   35  H   UNL     1       7.697  14.880  24.586  0.00  0.00     0.217 HD
ENDBRANCH  31  34
ENDBRANCH   4  25
TORSDOF 8
ENDMDL
