MODEL 1
REMARK VINA RESULT:    -6.497      0.000      0.000
REMARK INTER + INTRA:          -9.323
REMARK INTER:                  -8.270
REMARK INTRA:                  -1.053
REMARK UNBOUND:                -0.927
REMARK  5 active torsions:
REMARK  status: ('A' for Active; 'I' for Inactive)
REMARK    1  A    between atoms: N8_1  and  C24_2 
REMARK    2  A    between atoms: N8_1  and  C7_8 
REMARK    3  A    between atoms: C2_13  and  N1_14 
REMARK    4  A    between atoms: N1_14  and  C17_15 
REMARK    5  A    between atoms: C14_16  and  C13_19 
ROOT
ATOM      1  C17 FTA A   1       6.328  12.173   9.028  1.00  0.00     0.142 C 
ATOM      2  C14 FTA A   1       6.122  10.881   9.352  1.00  0.00     0.158 C 
ATOM      3  C18 FTA A   1       5.276  10.048   8.525  1.00  0.00     0.069 C 
ATOM      4  N21 FTA A   1       4.526   9.513   7.799  1.00  0.00    -0.197 NA
ENDROOT
BRANCH   2   5
ATOM      5  C13 FTA A   1       6.781  10.318  10.553  1.00  0.00     0.197 A 
ATOM      6  N15 FTA A   1       7.111  11.016  11.713  1.00  0.00    -0.093 NA
ATOM      7  N19 FTA A   1       7.753  10.128  12.566  1.00  0.00    -0.231 N 
ATOM      8  N20 FTA A   1       7.832   8.885  11.955  1.00  0.00    -0.017 NA
ATOM      9  H15 FTA A   1       8.114  10.356  13.504  1.00  0.00     0.200 HD
ATOM     10  N16 FTA A   1       7.220   8.998  10.711  1.00  0.00    -0.090 NA
ENDBRANCH   2   5
BRANCH   1  11
ATOM     11  N1  FTA A   1       6.098  13.122   9.955  1.00  0.00    -0.389 N 
ATOM     12  H11 FTA A   1       6.901  13.445  10.514  1.00  0.00     0.159 HD
BRANCH  11  13
ATOM     13  C2  FTA A   1       4.832  13.712  10.222  1.00  0.00     0.028 A 
ATOM     14  C4  FTA A   1       4.414  14.884   9.596  1.00  0.00     0.031 A 
ATOM     15  C6  FTA A   1       3.267  15.535  10.068  1.00  0.00     0.031 A 
ATOM     16  C7  FTA A   1       2.531  15.049  11.146  1.00  0.00     0.032 A 
ATOM     17  C5  FTA A   1       2.945  13.870  11.741  1.00  0.00     0.031 A 
ATOM     18  C3  FTA A   1       4.088  13.217  11.296  1.00  0.00     0.031 A 
BRANCH  16  19
ATOM     19  N8  FTA A   1       1.498  15.793  11.771  1.00  0.00    -0.356 N 
ATOM     20  H1  FTA A   1       0.835  16.288  11.157  1.00  0.00     0.166 HD
BRANCH  19  21
ATOM     21  C24 FTA A   1       1.301  15.913  13.180  1.00  0.00     0.032 A 
ATOM     22  C26 FTA A   1       2.018  16.812  13.933  1.00  0.00     0.029 A 
ATOM     23  C28 FTA A   1       1.907  16.759  15.310  1.00  0.00     0.002 A 
ATOM     24  C30 FTA A   1       1.078  15.857  15.954  1.00  0.00     0.000 A 
ATOM     25  C29 FTA A   1       0.329  14.982  15.213  1.00  0.00     0.002 A 
ATOM     26  C27 FTA A   1       0.443  15.031  13.819  1.00  0.00     0.029 A 
ENDBRANCH  19  21
ENDBRANCH  16  19
ENDBRANCH  11  13
ENDBRANCH   1  11
TORSDOF 5
ENDMDL
MODEL 2
REMARK VINA RESULT:    -6.484      1.875      2.823
REMARK INTER + INTRA:          -9.306
REMARK INTER:                  -8.370
REMARK INTRA:                  -0.936
REMARK UNBOUND:                -0.927
REMARK  5 active torsions:
REMARK  status: ('A' for Active; 'I' for Inactive)
REMARK    1  A    between atoms: N8_1  and  C24_2 
REMARK    2  A    between atoms: N8_1  and  C7_8 
REMARK    3  A    between atoms: C2_13  and  N1_14 
REMARK    4  A    between atoms: N1_14  and  C17_15 
REMARK    5  A    between atoms: C14_16  and  C13_19 
ROOT
ATOM      1  C17 FTA A   1       7.969  11.818   9.110  1.00  0.00     0.142 C 
ATOM      2  C14 FTA A   1       8.703  10.850   9.694  1.00  0.00     0.158 C 
ATOM      3  C18 FTA A   1       9.916  10.377   9.063  1.00  0.00     0.069 C 
ATOM      4  N21 FTA A   1      10.838  10.055   8.414  1.00  0.00    -0.197 NA
ENDROOT
BRANCH   2   5
ATOM      5  C13 FTA A   1       8.265  10.286  10.991  1.00  0.00     0.197 A 
ATOM      6  N15 FTA A   1       8.301  10.935  12.224  1.00  0.00    -0.093 NA
ATOM      7  N19 FTA A   1       7.845  10.038  13.181  1.00  0.00    -0.231 N 
ATOM      8  N20 FTA A   1       7.527   8.837  12.565  1.00  0.00    -0.017 NA
ATOM      9  H15 FTA A   1       7.758  10.234  14.189  1.00  0.00     0.200 HD
ATOM     10  N16 FTA A   1       7.776   8.992  11.206  1.00  0.00    -0.090 NA
ENDBRANCH   2   5
BRANCH   1  11
ATOM     11  N1  FTA A   1       6.655  11.604   8.904  1.00  0.00    -0.389 N 
ATOM     12  H11 FTA A   1       6.391  10.829   8.279  1.00  0.00     0.159 HD
BRANCH  11  13
ATOM     13  C2  FTA A   1       5.604  12.367   9.484  1.00  0.00     0.028 A 
ATOM     14  C4  FTA A   1       5.382  13.699   9.147  1.00  0.00     0.031 A 
ATOM     15  C6  FTA A   1       4.487  14.455   9.916  1.00  0.00     0.031 A 
ATOM     16  C7  FTA A   1       3.814  13.917  11.010  1.00  0.00     0.032 A 
ATOM     17  C5  FTA A   1       4.027  12.585  11.317  1.00  0.00     0.031 A 
ATOM     18  C3  FTA A   1       4.920  11.822  10.575  1.00  0.00     0.031 A 
BRANCH  16  19
ATOM     19  N8  FTA A   1       3.071  14.710  11.922  1.00  0.00    -0.356 N 
ATOM     20  H1  FTA A   1       3.603  15.246  12.623  1.00  0.00     0.166 HD
BRANCH  19  21
ATOM     21  C24 FTA A   1       1.648  14.825  11.949  1.00  0.00     0.032 A 
ATOM     22  C26 FTA A   1       0.913  14.410  13.034  1.00  0.00     0.029 A 
ATOM     23  C28 FTA A   1      -0.465  14.388  12.930  1.00  0.00     0.002 A 
ATOM     24  C30 FTA A   1      -1.131  14.797  11.787  1.00  0.00     0.000 A 
ATOM     25  C29 FTA A   1      -0.410  15.248  10.714  1.00  0.00     0.002 A 
ATOM     26  C27 FTA A   1       0.985  15.269  10.815  1.00  0.00     0.029 A 
ENDBRANCH  19  21
ENDBRANCH  16  19
ENDBRANCH  11  13
ENDBRANCH   1  11
TORSDOF 5
ENDMDL
MODEL 3
REMARK VINA RESULT:    -6.450      1.659      2.398
REMARK INTER + INTRA:          -9.263
REMARK INTER:                  -8.191
REMARK INTRA:                  -1.072
REMARK UNBOUND:                -0.927
REMARK  5 active torsions:
REMARK  status: ('A' for Active; 'I' for Inactive)
REMARK    1  A    between atoms: N8_1  and  C24_2 
REMARK    2  A    between atoms: N8_1  and  C7_8 
REMARK    3  A    between atoms: C2_13  and  N1_14 
REMARK    4  A    between atoms: N1_14  and  C17_15 
REMARK    5  A    between atoms: C14_16  and  C13_19 
ROOT
ATOM      1  C17 FTA A   1       6.361  12.203   9.080  1.00  0.00     0.142 C 
ATOM      2  C14 FTA A   1       6.178  10.904   9.390  1.00  0.00     0.158 C 
ATOM      3  C18 FTA A   1       5.366  10.061   8.539  1.00  0.00     0.069 C 
ATOM      4  N21 FTA A   1       4.642   9.517   7.795  1.00  0.00    -0.197 NA
ENDROOT
BRANCH   2   5
ATOM      5  C13 FTA A   1       6.827  10.345  10.597  1.00  0.00     0.197 A 
ATOM      6  N15 FTA A   1       7.153  11.047  11.756  1.00  0.00    -0.093 NA
ATOM      7  N19 FTA A   1       7.786  10.161  12.617  1.00  0.00    -0.231 N 
ATOM      8  N20 FTA A   1       7.863   8.915  12.013  1.00  0.00    -0.017 NA
ATOM      9  H15 FTA A   1       8.142  10.392  13.556  1.00  0.00     0.200 HD
ATOM     10  N16 FTA A   1       7.260   9.024  10.764  1.00  0.00    -0.090 NA
ENDBRANCH   2   5
BRANCH   1  11
ATOM     11  N1  FTA A   1       6.093  13.139  10.012  1.00  0.00    -0.389 N 
ATOM     12  H11 FTA A   1       6.887  13.514  10.551  1.00  0.00     0.159 HD
BRANCH  11  13
ATOM     13  C2  FTA A   1       4.799  13.647  10.308  1.00  0.00     0.028 A 
ATOM     14  C4  FTA A   1       4.343  14.858   9.793  1.00  0.00     0.031 A 
ATOM     15  C6  FTA A   1       3.160  15.411  10.303  1.00  0.00     0.031 A 
ATOM     16  C7  FTA A   1       2.427  14.790  11.310  1.00  0.00     0.032 A 
ATOM     17  C5  FTA A   1       2.880  13.576  11.794  1.00  0.00     0.031 A 
ATOM     18  C3  FTA A   1       4.057  13.017  11.311  1.00  0.00     0.031 A 
BRANCH  16  19
ATOM     19  N8  FTA A   1       1.352  15.426  11.983  1.00  0.00    -0.356 N 
ATOM     20  H1  FTA A   1       1.592  16.117  12.709  1.00  0.00     0.166 HD
BRANCH  19  21
ATOM     21  C24 FTA A   1      -0.034  15.187  11.738  1.00  0.00     0.032 A 
ATOM     22  C26 FTA A   1      -0.879  14.760  12.735  1.00  0.00     0.029 A 
ATOM     23  C28 FTA A   1      -2.164  14.382  12.397  1.00  0.00     0.002 A 
ATOM     24  C30 FTA A   1      -2.640  14.447  11.099  1.00  0.00     0.000 A 
ATOM     25  C29 FTA A   1      -1.820  14.906  10.103  1.00  0.00     0.002 A 
ATOM     26  C27 FTA A   1      -0.517  15.286  10.441  1.00  0.00     0.029 A 
ENDBRANCH  19  21
ENDBRANCH  16  19
ENDBRANCH  11  13
ENDBRANCH   1  11
TORSDOF 5
ENDMDL
MODEL 4
REMARK VINA RESULT:    -6.388      1.765      3.114
REMARK INTER + INTRA:          -9.181
REMARK INTER:                  -8.191
REMARK INTRA:                  -0.990
REMARK UNBOUND:                -0.927
REMARK  5 active torsions:
REMARK  status: ('A' for Active; 'I' for Inactive)
REMARK    1  A    between atoms: N8_1  and  C24_2 
REMARK    2  A    between atoms: N8_1  and  C7_8 
REMARK    3  A    between atoms: C2_13  and  N1_14 
REMARK    4  A    between atoms: N1_14  and  C17_15 
REMARK    5  A    between atoms: C14_16  and  C13_19 
ROOT
ATOM      1  C17 FTA A   1       7.688  11.314  11.480  1.00  0.00     0.142 C 
ATOM      2  C14 FTA A   1       7.630  11.336  10.134  1.00  0.00     0.158 C 
ATOM      3  C18 FTA A   1       8.613  12.079   9.375  1.00  0.00     0.069 C 
ATOM      4  N21 FTA A   1       9.436  12.765   8.898  1.00  0.00    -0.197 NA
ENDROOT
BRANCH   2   5
ATOM      5  C13 FTA A   1       6.562  10.581   9.439  1.00  0.00     0.197 A 
ATOM      6  N15 FTA A   1       5.978  10.917   8.220  1.00  0.00    -0.093 NA
ATOM      7  N19 FTA A   1       4.994   9.974   7.954  1.00  0.00    -0.231 N 
ATOM      8  N20 FTA A   1       4.953   9.054   8.992  1.00  0.00    -0.017 NA
ATOM      9  H15 FTA A   1       4.390   9.959   7.119  1.00  0.00     0.200 HD
ATOM     10  N16 FTA A   1       5.932   9.422   9.908  1.00  0.00    -0.090 NA
ENDBRANCH   2   5
BRANCH   1  11
ATOM     11  N1  FTA A   1       6.590  11.650  12.185  1.00  0.00    -0.389 N 
ATOM     12  H11 FTA A   1       6.366  11.083  13.016  1.00  0.00     0.159 HD
BRANCH  11  13
ATOM     13  C2  FTA A   1       5.718  12.727  11.871  1.00  0.00     0.028 A 
ATOM     14  C4  FTA A   1       6.059  14.054  12.120  1.00  0.00     0.031 A 
ATOM     15  C6  FTA A   1       5.073  15.043  12.003  1.00  0.00     0.031 A 
ATOM     16  C7  FTA A   1       3.760  14.741  11.649  1.00  0.00     0.032 A 
ATOM     17  C5  FTA A   1       3.443  13.421  11.380  1.00  0.00     0.031 A 
ATOM     18  C3  FTA A   1       4.404  12.425  11.503  1.00  0.00     0.031 A 
BRANCH  16  19
ATOM     19  N8  FTA A   1       2.705  15.686  11.728  1.00  0.00    -0.356 N 
ATOM     20  H1  FTA A   1       2.934  16.668  11.520  1.00  0.00     0.166 HD
BRANCH  19  21
ATOM     21  C24 FTA A   1       1.352  15.387  12.073  1.00  0.00     0.032 A 
ATOM     22  C26 FTA A   1       1.009  14.945  13.329  1.00  0.00     0.029 A 
ATOM     23  C28 FTA A   1      -0.284  14.509  13.547  1.00  0.00     0.002 A 
ATOM     24  C30 FTA A   1      -1.252  14.531  12.558  1.00  0.00     0.000 A 
ATOM     25  C29 FTA A   1      -0.933  15.005  11.313  1.00  0.00     0.002 A 
ATOM     26  C27 FTA A   1       0.377  15.443  11.088  1.00  0.00     0.029 A 
ENDBRANCH  19  21
ENDBRANCH  16  19
ENDBRANCH  11  13
ENDBRANCH   1  11
TORSDOF 5
ENDMDL
MODEL 5
REMARK VINA RESULT:    -6.263      2.140      3.301
REMARK INTER + INTRA:          -9.021
REMARK INTER:                  -8.020
REMARK INTRA:                  -1.000
REMARK UNBOUND:                -0.927
REMARK  5 active torsions:
REMARK  status: ('A' for Active; 'I' for Inactive)
REMARK    1  A    between atoms: N8_1  and  C24_2 
REMARK    2  A    between atoms: N8_1  and  C7_8 
REMARK    3  A    between atoms: C2_13  and  N1_14 
REMARK    4  A    between atoms: N1_14  and  C17_15 
REMARK    5  A    between atoms: C14_16  and  C13_19 
ROOT
ATOM      1  C17 FTA A   1       6.341  10.080   9.791  1.00  0.00     0.142 C 
ATOM      2  C14 FTA A   1       7.576  10.177  10.321  1.00  0.00     0.158 C 
ATOM      3  C18 FTA A   1       7.820   9.747  11.681  1.00  0.00     0.069 C 
ATOM      4  N21 FTA A   1       7.857   9.416  12.805  1.00  0.00    -0.197 NA
ENDROOT
BRANCH   2   5
ATOM      5  C13 FTA A   1       8.683  10.712   9.495  1.00  0.00     0.197 A 
ATOM      6  N15 FTA A   1       8.652  11.879   8.735  1.00  0.00    -0.093 NA
ATOM      7  N19 FTA A   1       9.874  11.987   8.084  1.00  0.00    -0.231 N 
ATOM      8  N20 FTA A   1      10.668  10.901   8.424  1.00  0.00    -0.017 NA
ATOM      9  H15 FTA A   1      10.147  12.750   7.449  1.00  0.00     0.200 HD
ATOM     10  N16 FTA A   1       9.935  10.115   9.308  1.00  0.00    -0.090 NA
ENDBRANCH   2   5
BRANCH   1  11
ATOM     11  N1  FTA A   1       5.784  11.172   9.233  1.00  0.00    -0.389 N 
ATOM     12  H11 FTA A   1       5.810  11.248   8.206  1.00  0.00     0.159 HD
BRANCH  11  13
ATOM     13  C2  FTA A   1       5.162  12.228   9.954  1.00  0.00     0.028 A 
ATOM     14  C4  FTA A   1       4.333  11.991  11.047  1.00  0.00     0.031 A 
ATOM     15  C6  FTA A   1       3.572  13.049  11.565  1.00  0.00     0.031 A 
ATOM     16  C7  FTA A   1       3.618  14.329  11.021  1.00  0.00     0.032 A 
ATOM     17  C5  FTA A   1       4.465  14.554   9.951  1.00  0.00     0.031 A 
ATOM     18  C3  FTA A   1       5.217  13.516   9.414  1.00  0.00     0.031 A 
BRANCH  16  19
ATOM     19  N8  FTA A   1       2.710  15.355  11.390  1.00  0.00    -0.356 N 
ATOM     20  H1  FTA A   1       3.053  16.326  11.351  1.00  0.00     0.166 HD
BRANCH  19  21
ATOM     21  C24 FTA A   1       1.361  15.153  11.810  1.00  0.00     0.032 A 
ATOM     22  C26 FTA A   1       1.059  14.705  13.074  1.00  0.00     0.029 A 
ATOM     23  C28 FTA A   1      -0.249  14.365  13.362  1.00  0.00     0.002 A 
ATOM     24  C30 FTA A   1      -1.270  14.490  12.435  1.00  0.00     0.000 A 
ATOM     25  C29 FTA A   1      -0.989  14.971  11.185  1.00  0.00     0.002 A 
ATOM     26  C27 FTA A   1       0.336  15.312  10.889  1.00  0.00     0.029 A 
ENDBRANCH  19  21
ENDBRANCH  16  19
ENDBRANCH  11  13
ENDBRANCH   1  11
TORSDOF 5
ENDMDL
MODEL 6
REMARK VINA RESULT:    -6.241      2.576      8.258
REMARK INTER + INTRA:          -8.992
REMARK INTER:                  -8.092
REMARK INTRA:                  -0.900
REMARK UNBOUND:                -0.927
REMARK  5 active torsions:
REMARK  status: ('A' for Active; 'I' for Inactive)
REMARK    1  A    between atoms: N8_1  and  C24_2 
REMARK    2  A    between atoms: N8_1  and  C7_8 
REMARK    3  A    between atoms: C2_13  and  N1_14 
REMARK    4  A    between atoms: N1_14  and  C17_15 
REMARK    5  A    between atoms: C14_16  and  C13_19 
ROOT
ATOM      1  C17 FTA A   1       1.724  15.390  12.418  1.00  0.00     0.142 C 
ATOM      2  C14 FTA A   1       0.529  15.037  12.933  1.00  0.00     0.158 C 
ATOM      3  C18 FTA A   1       0.379  14.848  14.359  1.00  0.00     0.069 C 
ATOM      4  N21 FTA A   1       0.420  14.674  15.518  1.00  0.00    -0.197 NA
ENDROOT
BRANCH   2   5
ATOM      5  C13 FTA A   1      -0.630  14.861  12.028  1.00  0.00     0.197 A 
ATOM      6  N15 FTA A   1      -1.901  14.424  12.395  1.00  0.00    -0.093 NA
ATOM      7  N19 FTA A   1      -2.669  14.357  11.241  1.00  0.00    -0.231 N 
ATOM      8  N20 FTA A   1      -1.896  14.743  10.156  1.00  0.00    -0.017 NA
ATOM      9  H15 FTA A   1      -3.657  14.066  11.197  1.00  0.00     0.200 HD
ATOM     10  N16 FTA A   1      -0.634  15.067  10.643  1.00  0.00    -0.090 NA
ENDBRANCH   2   5
BRANCH   1  11
ATOM     11  N1  FTA A   1       2.246  14.652  11.419  1.00  0.00    -0.389 N 
ATOM     12  H11 FTA A   1       1.663  14.502  10.583  1.00  0.00     0.159 HD
BRANCH  11  13
ATOM     13  C2  FTA A   1       3.541  14.065  11.430  1.00  0.00     0.028 A 
ATOM     14  C4  FTA A   1       3.730  12.686  11.391  1.00  0.00     0.031 A 
ATOM     15  C6  FTA A   1       5.008  12.167  11.637  1.00  0.00     0.031 A 
ATOM     16  C7  FTA A   1       6.098  12.987  11.920  1.00  0.00     0.032 A 
ATOM     17  C5  FTA A   1       5.899  14.357  11.930  1.00  0.00     0.031 A 
ATOM     18  C3  FTA A   1       4.636  14.890  11.703  1.00  0.00     0.031 A 
BRANCH  16  19
ATOM     19  N8  FTA A   1       7.343  12.483  12.375  1.00  0.00    -0.356 N 
ATOM     20  H1  FTA A   1       7.532  12.533  13.386  1.00  0.00     0.166 HD
BRANCH  19  21
ATOM     21  C24 FTA A   1       8.356  11.912  11.546  1.00  0.00     0.032 A 
ATOM     22  C26 FTA A   1       9.515  12.591  11.255  1.00  0.00     0.029 A 
ATOM     23  C28 FTA A   1      10.375  12.060  10.312  1.00  0.00     0.002 A 
ATOM     24  C30 FTA A   1      10.126  10.856   9.675  1.00  0.00     0.000 A 
ATOM     25  C29 FTA A   1       8.993  10.152   9.984  1.00  0.00     0.002 A 
ATOM     26  C27 FTA A   1       8.119  10.689  10.936  1.00  0.00     0.029 A 
ENDBRANCH  19  21
ENDBRANCH  16  19
ENDBRANCH  11  13
ENDBRANCH   1  11
TORSDOF 5
ENDMDL
MODEL 7
REMARK VINA RESULT:    -6.222      1.640      2.450
REMARK INTER + INTRA:          -8.967
REMARK INTER:                  -7.810
REMARK INTRA:                  -1.157
REMARK UNBOUND:                -0.927
REMARK  5 active torsions:
REMARK  status: ('A' for Active; 'I' for Inactive)
REMARK    1  A    between atoms: N8_1  and  C24_2 
REMARK    2  A    between atoms: N8_1  and  C7_8 
REMARK    3  A    between atoms: C2_13  and  N1_14 
REMARK    4  A    between atoms: N1_14  and  C17_15 
REMARK    5  A    between atoms: C14_16  and  C13_19 
ROOT
ATOM      1  C17 FTA A   1       7.456  13.575  11.061  1.00  0.00     0.142 C 
ATOM      2  C14 FTA A   1       8.372  12.587  11.015  1.00  0.00     0.158 C 
ATOM      3  C18 FTA A   1       9.784  12.900  11.067  1.00  0.00     0.069 C 
ATOM      4  N21 FTA A   1      10.884  13.303  11.061  1.00  0.00    -0.197 NA
ENDROOT
BRANCH   2   5
ATOM      5  C13 FTA A   1       7.919  11.180  10.926  1.00  0.00     0.197 A 
ATOM      6  N15 FTA A   1       7.011  10.665  10.004  1.00  0.00    -0.093 NA
ATOM      7  N19 FTA A   1       6.833   9.319  10.300  1.00  0.00    -0.231 N 
ATOM      8  N20 FTA A   1       7.617   8.986  11.395  1.00  0.00    -0.017 NA
ATOM      9  H15 FTA A   1       6.218   8.671   9.787  1.00  0.00     0.200 HD
ATOM     10  N16 FTA A   1       8.300  10.136  11.778  1.00  0.00    -0.090 NA
ENDBRANCH   2   5
BRANCH   1  11
ATOM     11  N1  FTA A   1       6.513  13.635  10.102  1.00  0.00    -0.389 N 
ATOM     12  H11 FTA A   1       6.817  13.507   9.126  1.00  0.00     0.159 HD
BRANCH  11  13
ATOM     13  C2  FTA A   1       5.128  13.860  10.334  1.00  0.00     0.028 A 
ATOM     14  C4  FTA A   1       4.469  14.986   9.846  1.00  0.00     0.031 A 
ATOM     15  C6  FTA A   1       3.172  15.264  10.300  1.00  0.00     0.031 A 
ATOM     16  C7  FTA A   1       2.522  14.452  11.225  1.00  0.00     0.032 A 
ATOM     17  C5  FTA A   1       3.181  13.324  11.681  1.00  0.00     0.031 A 
ATOM     18  C3  FTA A   1       4.472  13.038  11.254  1.00  0.00     0.031 A 
BRANCH  16  19
ATOM     19  N8  FTA A   1       1.305  14.822  11.853  1.00  0.00    -0.356 N 
ATOM     20  H1  FTA A   1       0.441  14.731  11.299  1.00  0.00     0.166 HD
BRANCH  19  21
ATOM     21  C24 FTA A   1       1.179  15.310  13.189  1.00  0.00     0.032 A 
ATOM     22  C26 FTA A   1       1.904  16.390  13.633  1.00  0.00     0.029 A 
ATOM     23  C28 FTA A   1       1.868  16.705  14.978  1.00  0.00     0.002 A 
ATOM     24  C30 FTA A   1       1.104  15.992  15.887  1.00  0.00     0.000 A 
ATOM     25  C29 FTA A   1       0.347  14.938  15.450  1.00  0.00     0.002 A 
ATOM     26  C27 FTA A   1       0.385  14.615  14.089  1.00  0.00     0.029 A 
ENDBRANCH  19  21
ENDBRANCH  16  19
ENDBRANCH  11  13
ENDBRANCH   1  11
TORSDOF 5
ENDMDL
MODEL 8
REMARK VINA RESULT:    -6.059      1.946      2.865
REMARK INTER + INTRA:          -8.757
REMARK INTER:                  -7.831
REMARK INTRA:                  -0.927
REMARK UNBOUND:                -0.927
REMARK  5 active torsions:
REMARK  status: ('A' for Active; 'I' for Inactive)
REMARK    1  A    between atoms: N8_1  and  C24_2 
REMARK    2  A    between atoms: N8_1  and  C7_8 
REMARK    3  A    between atoms: C2_13  and  N1_14 
REMARK    4  A    between atoms: N1_14  and  C17_15 
REMARK    5  A    between atoms: C14_16  and  C13_19 
ROOT
ATOM      1  C17 FTA A   1       6.389  10.220   9.912  1.00  0.00     0.142 C 
ATOM      2  C14 FTA A   1       7.635  10.255  10.424  1.00  0.00     0.158 C 
ATOM      3  C18 FTA A   1       7.871   9.843  11.791  1.00  0.00     0.069 C 
ATOM      4  N21 FTA A   1       7.904   9.538  12.923  1.00  0.00    -0.197 NA
ENDROOT
BRANCH   2   5
ATOM      5  C13 FTA A   1       8.760  10.702   9.572  1.00  0.00     0.197 A 
ATOM      6  N15 FTA A   1       8.753  11.794   8.707  1.00  0.00    -0.093 NA
ATOM      7  N19 FTA A   1       9.986  11.831   8.070  1.00  0.00    -0.231 N 
ATOM      8  N20 FTA A   1      10.764  10.775   8.522  1.00  0.00    -0.017 NA
ATOM      9  H15 FTA A   1      10.278  12.531   7.372  1.00  0.00     0.200 HD
ATOM     10  N16 FTA A   1      10.010  10.080   9.462  1.00  0.00    -0.090 NA
ENDBRANCH   2   5
BRANCH   1  11
ATOM     11  N1  FTA A   1       5.891  11.330   9.334  1.00  0.00    -0.389 N 
ATOM     12  H11 FTA A   1       6.024  11.439   8.318  1.00  0.00     0.159 HD
BRANCH  11  13
ATOM     13  C2  FTA A   1       5.194  12.363  10.019  1.00  0.00     0.028 A 
ATOM     14  C4  FTA A   1       4.326  12.097  11.076  1.00  0.00     0.031 A 
ATOM     15  C6  FTA A   1       3.501  13.125  11.552  1.00  0.00     0.031 A 
ATOM     16  C7  FTA A   1       3.519  14.404  11.003  1.00  0.00     0.032 A 
ATOM     17  C5  FTA A   1       4.405  14.659   9.971  1.00  0.00     0.031 A 
ATOM     18  C3  FTA A   1       5.222  13.650   9.475  1.00  0.00     0.031 A 
BRANCH  16  19
ATOM     19  N8  FTA A   1       2.555  15.393  11.324  1.00  0.00    -0.356 N 
ATOM     20  H1  FTA A   1       2.403  16.146  10.636  1.00  0.00     0.166 HD
BRANCH  19  21
ATOM     21  C24 FTA A   1       1.778  15.433  12.521  1.00  0.00     0.032 A 
ATOM     22  C26 FTA A   1       2.129  16.235  13.581  1.00  0.00     0.029 A 
ATOM     23  C28 FTA A   1       1.439  16.099  14.771  1.00  0.00     0.002 A 
ATOM     24  C30 FTA A   1       0.389  15.210  14.923  1.00  0.00     0.000 A 
ATOM     25  C29 FTA A   1       0.005  14.433  13.863  1.00  0.00     0.002 A 
ATOM     26  C27 FTA A   1       0.705  14.565  12.658  1.00  0.00     0.029 A 
ENDBRANCH  19  21
ENDBRANCH  16  19
ENDBRANCH  11  13
ENDBRANCH   1  11
TORSDOF 5
ENDMDL
MODEL 9
REMARK VINA RESULT:    -6.011      2.447      8.040
REMARK INTER + INTRA:          -8.695
REMARK INTER:                  -7.623
REMARK INTRA:                  -1.072
REMARK UNBOUND:                -0.927
REMARK  5 active torsions:
REMARK  status: ('A' for Active; 'I' for Inactive)
REMARK    1  A    between atoms: N8_1  and  C24_2 
REMARK    2  A    between atoms: N8_1  and  C7_8 
REMARK    3  A    between atoms: C2_13  and  N1_14 
REMARK    4  A    between atoms: N1_14  and  C17_15 
REMARK    5  A    between atoms: C14_16  and  C13_19 
ROOT
ATOM      1  C17 FTA A   1       2.921  17.139  12.675  1.00  0.00     0.142 C 
ATOM      2  C14 FTA A   1       2.729  16.834  13.974  1.00  0.00     0.158 C 
ATOM      3  C18 FTA A   1       3.710  17.221  14.965  1.00  0.00     0.069 C 
ATOM      4  N21 FTA A   1       4.610  17.544  15.643  1.00  0.00    -0.197 NA
ENDROOT
BRANCH   2   5
ATOM      5  C13 FTA A   1       1.499  16.115  14.380  1.00  0.00     0.197 A 
ATOM      6  N15 FTA A   1       1.107  15.828  15.685  1.00  0.00    -0.093 NA
ATOM      7  N19 FTA A   1      -0.076  15.105  15.616  1.00  0.00    -0.231 N 
ATOM      8  N20 FTA A   1      -0.429  14.934  14.286  1.00  0.00    -0.017 NA
ATOM      9  H15 FTA A   1      -0.608  14.751  16.425  1.00  0.00     0.200 HD
ATOM     10  N16 FTA A   1       0.541  15.569  13.517  1.00  0.00    -0.090 NA
ENDBRANCH   2   5
BRANCH   1  11
ATOM     11  N1  FTA A   1       2.845  16.156  11.758  1.00  0.00    -0.389 N 
ATOM     12  H11 FTA A   1       2.076  16.202  11.073  1.00  0.00     0.159 HD
BRANCH  11  13
ATOM     13  C2  FTA A   1       3.744  15.059  11.661  1.00  0.00     0.028 A 
ATOM     14  C4  FTA A   1       3.302  13.752  11.470  1.00  0.00     0.031 A 
ATOM     15  C6  FTA A   1       4.214  12.698  11.615  1.00  0.00     0.031 A 
ATOM     16  C7  FTA A   1       5.549  12.914  11.946  1.00  0.00     0.032 A 
ATOM     17  C5  FTA A   1       5.978  14.219  12.108  1.00  0.00     0.031 A 
ATOM     18  C3  FTA A   1       5.087  15.278  11.982  1.00  0.00     0.031 A 
BRANCH  16  19
ATOM     19  N8  FTA A   1       6.433  11.864  12.301  1.00  0.00    -0.356 N 
ATOM     20  H1  FTA A   1       6.241  11.361  13.179  1.00  0.00     0.166 HD
BRANCH  19  21
ATOM     21  C24 FTA A   1       7.568  11.447  11.541  1.00  0.00     0.032 A 
ATOM     22  C26 FTA A   1       8.786  12.074  11.661  1.00  0.00     0.029 A 
ATOM     23  C28 FTA A   1       9.794  11.738  10.777  1.00  0.00     0.002 A 
ATOM     24  C30 FTA A   1       9.632  10.772   9.798  1.00  0.00     0.000 A 
ATOM     25  C29 FTA A   1       8.436  10.113   9.693  1.00  0.00     0.002 A 
ATOM     26  C27 FTA A   1       7.412  10.454  10.584  1.00  0.00     0.029 A 
ENDBRANCH  19  21
ENDBRANCH  16  19
ENDBRANCH  11  13
ENDBRANCH   1  11
TORSDOF 5
ENDMDL
