MODEL 1
REMARK VINA RESULT:    -8.613      0.000      0.000
REMARK INTER + INTRA:         -14.229
REMARK INTER:                 -12.964
REMARK INTRA:                  -1.265
REMARK UNBOUND:                -1.084
REMARK  10 active torsions:
REMARK  status: ('A' for Active; 'I' for Inactive)
REMARK    1  A    between atoms: N_1  and  C_5 
REMARK    2  A    between atoms: C_5  and  C_6 
REMARK    3  A    between atoms: C_6  and  O_7 
REMARK    4  A    between atoms: O_7  and  C_8 
REMARK    5  A    between atoms: C_8  and  C_9 
REMARK    6  A    between atoms: C_14  and  N_15 
REMARK       I    between atoms: N_15  and  C_17 
REMARK    7  A    between atoms: C_17  and  C_19 
REMARK    8  A    between atoms: C_21  and  O_22 
REMARK    9  A    between atoms: C_29  and  C_30 
REMARK   10  A    between atoms: C_30  and  C_31 
ROOT
HETATM    1  C   UNL     1       1.487   8.379  25.951  0.00  0.00     0.066 C 
HETATM    2  C   UNL     1       0.141   8.780  25.808  0.00  0.00     0.035 C 
HETATM    3  C   UNL     1       2.038   8.409  27.248  0.00  0.00     0.083 C 
HETATM    4  C   UNL     1       1.322   8.889  28.355  0.00  0.00     0.069 C 
HETATM    5  C   UNL     1       0.057   9.424  28.109  0.00  0.00     0.065 C 
HETATM    6  C   UNL     1      -0.538   9.435  26.855  0.00  0.00     0.020 C 
HETATM    7  N   UNL     1      -0.867  10.006  28.939  0.00  0.00    -0.277 N 
HETATM    8  H   UNL     1      -0.801  10.134  29.943  0.00  0.00     0.189 HD
HETATM    9  N   UNL     1      -1.953  10.481  28.307  0.00  0.00    -0.178 NA
HETATM   10  C   UNL     1      -1.737  10.207  27.007  0.00  0.00     0.071 C 
ENDROOT
BRANCH   1  11
HETATM   11  C   UNL     1       2.371   7.977  24.781  0.00  0.00     0.260 C 
HETATM   12  N   UNL     1       3.142   8.934  24.045  0.00  0.00    -0.318 N 
HETATM   13  C   UNL     1       3.054  10.359  24.349  0.00  0.00     0.159 C 
HETATM   14  O   UNL     1       2.465   6.754  24.611  0.00  0.00    -0.267 OA
BRANCH  12  15
HETATM   15  C   UNL     1       4.072   8.546  22.989  0.00  0.00     0.037 A 
HETATM   16  C   UNL     1       4.777   7.325  23.053  0.00  0.00     0.030 A 
HETATM   17  C   UNL     1       5.605   6.874  22.014  0.00  0.00     0.011 A 
HETATM   18  C   UNL     1       5.743   7.630  20.859  0.00  0.00    -0.035 A 
HETATM   19  C   UNL     1       5.131   8.881  20.799  0.00  0.00     0.011 A 
HETATM   20  C   UNL     1       4.310   9.329  21.848  0.00  0.00     0.030 A 
BRANCH  18  21
HETATM   21  C   UNL     1       6.419   7.018  19.662  0.00  0.00     0.206 C 
BRANCH  21  22
HETATM   22  O   UNL     1       5.631   7.274  18.476  0.00  0.00    -0.385 OA
BRANCH  22  23
HETATM   23  C   UNL     1       4.626   6.268  18.268  0.00  0.00     0.195 C 
BRANCH  23  24
HETATM   24  C   UNL     1       3.291   6.964  18.034  0.00  0.00     0.255 C 
BRANCH  24  25
HETATM   25  N   UNL     1       2.505   6.941  19.301  0.00  0.00    -0.077 N 
HETATM   26  H   UNL     1       2.103   5.997  19.411  0.00  0.00     0.274 HD
HETATM   27  H   UNL     1       3.100   7.109  20.122  0.00  0.00     0.274 HD
HETATM   28  H   UNL     1       1.741   7.627  19.299  0.00  0.00     0.274 HD
ENDBRANCH  24  25
ENDBRANCH  23  24
ENDBRANCH  22  23
ENDBRANCH  21  22
ENDBRANCH  18  21
ENDBRANCH  12  15
ENDBRANCH   1  11
BRANCH   3  29
HETATM   29  O   UNL     1       3.310   7.972  27.536  0.00  0.00    -0.360 OA
HETATM   30  H   UNL     1       3.236   7.237  28.183  0.00  0.00     0.217 HD
ENDBRANCH   3  29
BRANCH  10  31
HETATM   31  C   UNL     1      -2.707  10.731  25.964  0.00  0.00     0.100 C 
BRANCH  31  32
HETATM   32  C   UNL     1      -1.976  11.549  24.889  0.00  0.00    -0.052 A 
HETATM   33  C   UNL     1      -2.301  11.470  23.526  0.00  0.00     0.007 A 
HETATM   34  C   UNL     1      -1.633  12.230  22.565  0.00  0.00     0.001 A 
HETATM   35  C   UNL     1      -0.554  13.025  22.925  0.00  0.00     0.007 A 
HETATM   36  C   UNL     1      -0.104  13.037  24.249  0.00  0.00    -0.061 A 
HETATM   37  C   UNL     1      -0.840  12.331  25.229  0.00  0.00     0.014 A 
HETATM   38  C   UNL     1       1.161  13.789  24.563  0.00  0.00     0.048 C 
ENDBRANCH  31  32
ENDBRANCH  10  31
TORSDOF 10
ENDMDL
MODEL 2
REMARK VINA RESULT:    -8.322      1.514      2.320
REMARK INTER + INTRA:         -13.785
REMARK INTER:                 -12.693
REMARK INTRA:                  -1.093
REMARK UNBOUND:                -1.084
REMARK  10 active torsions:
REMARK  status: ('A' for Active; 'I' for Inactive)
REMARK    1  A    between atoms: N_1  and  C_5 
REMARK    2  A    between atoms: C_5  and  C_6 
REMARK    3  A    between atoms: C_6  and  O_7 
REMARK    4  A    between atoms: O_7  and  C_8 
REMARK    5  A    between atoms: C_8  and  C_9 
REMARK    6  A    between atoms: C_14  and  N_15 
REMARK       I    between atoms: N_15  and  C_17 
REMARK    7  A    between atoms: C_17  and  C_19 
REMARK    8  A    between atoms: C_21  and  O_22 
REMARK    9  A    between atoms: C_29  and  C_30 
REMARK   10  A    between atoms: C_30  and  C_31 
ROOT
HETATM    1  C   UNL     1       2.117   7.985  25.513  0.00  0.00     0.066 C 
HETATM    2  C   UNL     1       0.780   8.416  25.645  0.00  0.00     0.035 C 
HETATM    3  C   UNL     1       2.887   7.890  26.690  0.00  0.00     0.083 C 
HETATM    4  C   UNL     1       2.390   8.278  27.943  0.00  0.00     0.069 C 
HETATM    5  C   UNL     1       1.118   8.852  27.972  0.00  0.00     0.065 C 
HETATM    6  C   UNL     1       0.314   8.984  26.848  0.00  0.00     0.020 C 
HETATM    7  N   UNL     1       0.371   9.370  28.998  0.00  0.00    -0.277 N 
HETATM    8  H   UNL     1       0.615   9.406  29.982  0.00  0.00     0.189 HD
HETATM    9  N   UNL     1      -0.794   9.915  28.611  0.00  0.00    -0.178 NA
HETATM   10  C   UNL     1      -0.817   9.756  27.275  0.00  0.00     0.071 C 
ENDROOT
BRANCH   1  11
HETATM   11  C   UNL     1       2.771   7.677  24.176  0.00  0.00     0.260 C 
HETATM   12  N   UNL     1       2.988   6.335  23.724  0.00  0.00    -0.318 N 
HETATM   13  C   UNL     1       2.648   5.196  24.572  0.00  0.00     0.159 C 
HETATM   14  O   UNL     1       2.973   8.673  23.467  0.00  0.00    -0.267 OA
BRANCH  12  15
HETATM   15  C   UNL     1       3.519   6.029  22.399  0.00  0.00     0.037 A 
HETATM   16  C   UNL     1       2.835   5.158  21.525  0.00  0.00     0.030 A 
HETATM   17  C   UNL     1       3.264   4.914  20.212  0.00  0.00     0.011 A 
HETATM   18  C   UNL     1       4.392   5.555  19.720  0.00  0.00    -0.035 A 
HETATM   19  C   UNL     1       5.140   6.354  20.584  0.00  0.00     0.011 A 
HETATM   20  C   UNL     1       4.709   6.584  21.901  0.00  0.00     0.030 A 
BRANCH  18  21
HETATM   21  C   UNL     1       4.687   5.486  18.246  0.00  0.00     0.206 C 
BRANCH  21  22
HETATM   22  O   UNL     1       4.414   6.770  17.637  0.00  0.00    -0.385 OA
BRANCH  22  23
HETATM   23  C   UNL     1       3.025   6.925  17.303  0.00  0.00     0.195 C 
BRANCH  23  24
HETATM   24  C   UNL     1       2.504   8.184  17.986  0.00  0.00     0.255 C 
BRANCH  24  25
HETATM   25  N   UNL     1       1.583   8.894  17.054  0.00  0.00    -0.077 N 
HETATM   26  H   UNL     1       1.700   9.909  17.200  0.00  0.00     0.274 HD
HETATM   27  H   UNL     1       1.815   8.706  16.071  0.00  0.00     0.274 HD
HETATM   28  H   UNL     1       0.600   8.648  17.215  0.00  0.00     0.274 HD
ENDBRANCH  24  25
ENDBRANCH  23  24
ENDBRANCH  22  23
ENDBRANCH  21  22
ENDBRANCH  18  21
ENDBRANCH  12  15
ENDBRANCH   1  11
BRANCH   3  29
HETATM   29  O   UNL     1       4.176   7.410  26.710  0.00  0.00    -0.360 OA
HETATM   30  H   UNL     1       4.183   6.548  26.240  0.00  0.00     0.217 HD
ENDBRANCH   3  29
BRANCH  10  31
HETATM   31  C   UNL     1      -1.938  10.386  26.469  0.00  0.00     0.100 C 
BRANCH  31  32
HETATM   32  C   UNL     1      -1.383  11.332  25.393  0.00  0.00    -0.052 A 
HETATM   33  C   UNL     1      -0.379  12.275  25.659  0.00  0.00     0.007 A 
HETATM   34  C   UNL     1       0.120  13.119  24.665  0.00  0.00     0.001 A 
HETATM   35  C   UNL     1      -0.434  13.109  23.393  0.00  0.00     0.007 A 
HETATM   36  C   UNL     1      -1.526  12.282  23.111  0.00  0.00    -0.061 A 
HETATM   37  C   UNL     1      -1.968  11.371  24.099  0.00  0.00     0.014 A 
HETATM   38  C   UNL     1      -2.192  12.417  21.769  0.00  0.00     0.048 C 
ENDBRANCH  31  32
ENDBRANCH  10  31
TORSDOF 10
ENDMDL
MODEL 3
REMARK VINA RESULT:    -8.226      1.371      2.126
REMARK INTER + INTRA:         -13.638
REMARK INTER:                 -12.174
REMARK INTRA:                  -1.464
REMARK UNBOUND:                -1.084
REMARK  10 active torsions:
REMARK  status: ('A' for Active; 'I' for Inactive)
REMARK    1  A    between atoms: N_1  and  C_5 
REMARK    2  A    between atoms: C_5  and  C_6 
REMARK    3  A    between atoms: C_6  and  O_7 
REMARK    4  A    between atoms: O_7  and  C_8 
REMARK    5  A    between atoms: C_8  and  C_9 
REMARK    6  A    between atoms: C_14  and  N_15 
REMARK       I    between atoms: N_15  and  C_17 
REMARK    7  A    between atoms: C_17  and  C_19 
REMARK    8  A    between atoms: C_21  and  O_22 
REMARK    9  A    between atoms: C_29  and  C_30 
REMARK   10  A    between atoms: C_30  and  C_31 
ROOT
HETATM    1  C   UNL     1       1.733   8.402  26.276  0.00  0.00     0.066 C 
HETATM    2  C   UNL     1       0.401   8.780  26.004  0.00  0.00     0.035 C 
HETATM    3  C   UNL     1       2.166   8.475  27.616  0.00  0.00     0.083 C 
HETATM    4  C   UNL     1       1.350   8.974  28.641  0.00  0.00     0.069 C 
HETATM    5  C   UNL     1       0.106   9.486  28.269  0.00  0.00     0.065 C 
HETATM    6  C   UNL     1      -0.375   9.454  26.968  0.00  0.00     0.020 C 
HETATM    7  N   UNL     1      -0.895  10.078  28.996  0.00  0.00    -0.277 N 
HETATM    8  H   UNL     1      -0.920  10.234  29.998  0.00  0.00     0.189 HD
HETATM    9  N   UNL     1      -1.925  10.520  28.258  0.00  0.00    -0.178 NA
HETATM   10  C   UNL     1      -1.592  10.213  26.991  0.00  0.00     0.071 C 
ENDROOT
BRANCH   1  11
HETATM   11  C   UNL     1       2.722   7.980  25.202  0.00  0.00     0.260 C 
HETATM   12  N   UNL     1       2.919   6.607  24.843  0.00  0.00    -0.318 N 
HETATM   13  C   UNL     1       2.219   5.541  25.554  0.00  0.00     0.159 C 
HETATM   14  O   UNL     1       3.234   8.923  24.582  0.00  0.00    -0.267 OA
BRANCH  12  15
HETATM   15  C   UNL     1       3.788   6.200  23.744  0.00  0.00     0.037 A 
HETATM   16  C   UNL     1       3.278   5.484  22.640  0.00  0.00     0.030 A 
HETATM   17  C   UNL     1       4.061   5.159  21.522  0.00  0.00     0.011 A 
HETATM   18  C   UNL     1       5.388   5.559  21.464  0.00  0.00    -0.035 A 
HETATM   19  C   UNL     1       5.947   6.191  22.574  0.00  0.00     0.011 A 
HETATM   20  C   UNL     1       5.159   6.504  23.693  0.00  0.00     0.030 A 
BRANCH  18  21
HETATM   21  C   UNL     1       6.133   5.432  20.163  0.00  0.00     0.206 C 
BRANCH  21  22
HETATM   22  O   UNL     1       5.402   6.115  19.117  0.00  0.00    -0.385 OA
BRANCH  22  23
HETATM   23  C   UNL     1       5.633   7.533  19.135  0.00  0.00     0.195 C 
BRANCH  23  24
HETATM   24  C   UNL     1       4.286   8.237  19.257  0.00  0.00     0.255 C 
BRANCH  24  25
HETATM   25  N   UNL     1       4.158   8.799  20.632  0.00  0.00    -0.077 N 
HETATM   26  H   UNL     1       3.840   8.042  21.258  0.00  0.00     0.274 HD
HETATM   27  H   UNL     1       5.062   9.126  20.997  0.00  0.00     0.274 HD
HETATM   28  H   UNL     1       3.483   9.570  20.677  0.00  0.00     0.274 HD
ENDBRANCH  24  25
ENDBRANCH  23  24
ENDBRANCH  22  23
ENDBRANCH  21  22
ENDBRANCH  18  21
ENDBRANCH  12  15
ENDBRANCH   1  11
BRANCH   3  29
HETATM   29  O   UNL     1       3.412   8.063  28.028  0.00  0.00    -0.360 OA
HETATM   30  H   UNL     1       3.353   7.831  28.980  0.00  0.00     0.217 HD
ENDBRANCH   3  29
BRANCH  10  31
HETATM   31  C   UNL     1      -2.471  10.696  25.851  0.00  0.00     0.100 C 
BRANCH  31  32
HETATM   32  C   UNL     1      -1.674  11.562  24.864  0.00  0.00    -0.052 A 
HETATM   33  C   UNL     1      -0.610  12.383  25.266  0.00  0.00     0.007 A 
HETATM   34  C   UNL     1       0.111  13.154  24.352  0.00  0.00     0.001 A 
HETATM   35  C   UNL     1      -0.271  13.201  23.019  0.00  0.00     0.007 A 
HETATM   36  C   UNL     1      -1.407  12.506  22.591  0.00  0.00    -0.061 A 
HETATM   37  C   UNL     1      -2.077  11.661  23.505  0.00  0.00     0.014 A 
HETATM   38  C   UNL     1      -1.873  12.709  21.175  0.00  0.00     0.048 C 
ENDBRANCH  31  32
ENDBRANCH  10  31
TORSDOF 10
ENDMDL
MODEL 4
REMARK VINA RESULT:    -7.905      3.103      9.113
REMARK INTER + INTRA:         -13.149
REMARK INTER:                 -12.223
REMARK INTRA:                  -0.926
REMARK UNBOUND:                -1.084
REMARK  10 active torsions:
REMARK  status: ('A' for Active; 'I' for Inactive)
REMARK    1  A    between atoms: N_1  and  C_5 
REMARK    2  A    between atoms: C_5  and  C_6 
REMARK    3  A    between atoms: C_6  and  O_7 
REMARK    4  A    between atoms: O_7  and  C_8 
REMARK    5  A    between atoms: C_8  and  C_9 
REMARK    6  A    between atoms: C_14  and  N_15 
REMARK       I    between atoms: N_15  and  C_17 
REMARK    7  A    between atoms: C_17  and  C_19 
REMARK    8  A    between atoms: C_21  and  O_22 
REMARK    9  A    between atoms: C_29  and  C_30 
REMARK   10  A    between atoms: C_30  and  C_31 
ROOT
HETATM    1  C   UNL     1       4.298   7.379  22.931  0.00  0.00     0.066 C 
HETATM    2  C   UNL     1       3.856   8.075  21.786  0.00  0.00     0.035 C 
HETATM    3  C   UNL     1       5.499   6.649  22.823  0.00  0.00     0.083 C 
HETATM    4  C   UNL     1       6.203   6.540  21.615  0.00  0.00     0.069 C 
HETATM    5  C   UNL     1       5.618   7.115  20.486  0.00  0.00     0.065 C 
HETATM    6  C   UNL     1       4.433   7.836  20.522  0.00  0.00     0.020 C 
HETATM    7  N   UNL     1       6.008   7.151  19.171  0.00  0.00    -0.277 N 
HETATM    8  H   UNL     1       6.855   6.764  18.768  0.00  0.00     0.189 HD
HETATM    9  N   UNL     1       5.125   7.741  18.351  0.00  0.00    -0.178 NA
HETATM   10  C   UNL     1       4.107   8.106  19.152  0.00  0.00     0.071 C 
ENDROOT
BRANCH   1  11
HETATM   11  C   UNL     1       3.521   7.335  24.237  0.00  0.00     0.260 C 
HETATM   12  N   UNL     1       3.040   8.522  24.878  0.00  0.00    -0.318 N 
HETATM   13  C   UNL     1       3.340   9.841  24.331  0.00  0.00     0.159 C 
HETATM   14  O   UNL     1       3.232   6.192  24.620  0.00  0.00    -0.267 OA
BRANCH  12  15
HETATM   15  C   UNL     1       2.206   8.484  26.075  0.00  0.00     0.037 A 
HETATM   16  C   UNL     1       2.748   8.127  27.328  0.00  0.00     0.030 A 
HETATM   17  C   UNL     1       2.001   8.171  28.516  0.00  0.00     0.011 A 
HETATM   18  C   UNL     1       0.680   8.594  28.490  0.00  0.00    -0.035 A 
HETATM   19  C   UNL     1       0.088   8.869  27.258  0.00  0.00     0.011 A 
HETATM   20  C   UNL     1       0.841   8.814  26.073  0.00  0.00     0.030 A 
BRANCH  18  21
HETATM   21  C   UNL     1      -0.021   8.881  29.790  0.00  0.00     0.206 C 
BRANCH  21  22
HETATM   22  O   UNL     1       0.913   8.738  30.886  0.00  0.00    -0.385 OA
BRANCH  22  23
HETATM   23  C   UNL     1       0.507   7.718  31.813  0.00  0.00     0.195 C 
BRANCH  23  24
HETATM   24  C   UNL     1       1.452   7.752  33.008  0.00  0.00     0.255 C 
BRANCH  24  25
HETATM   25  N   UNL     1       1.028   8.846  33.928  0.00  0.00    -0.077 N 
HETATM   26  H   UNL     1       1.864   9.183  34.430  0.00  0.00     0.274 HD
HETATM   27  H   UNL     1       0.645   9.650  33.415  0.00  0.00     0.274 HD
HETATM   28  H   UNL     1       0.335   8.531  34.616  0.00  0.00     0.274 HD
ENDBRANCH  24  25
ENDBRANCH  23  24
ENDBRANCH  22  23
ENDBRANCH  21  22
ENDBRANCH  18  21
ENDBRANCH  12  15
ENDBRANCH   1  11
BRANCH   3  29
HETATM   29  O   UNL     1       6.078   5.991  23.883  0.00  0.00    -0.360 OA
HETATM   30  H   UNL     1       5.958   5.027  23.741  0.00  0.00     0.217 HD
ENDBRANCH   3  29
BRANCH  10  31
HETATM   31  C   UNL     1       2.846   8.687  18.538  0.00  0.00     0.100 C 
BRANCH  31  32
HETATM   32  C   UNL     1       2.032   7.603  17.815  0.00  0.00    -0.052 A 
HETATM   33  C   UNL     1       1.876   7.577  16.421  0.00  0.00     0.007 A 
HETATM   34  C   UNL     1       1.141   6.577  15.781  0.00  0.00     0.001 A 
HETATM   35  C   UNL     1       0.460   5.624  16.523  0.00  0.00     0.007 A 
HETATM   36  C   UNL     1       0.471   5.684  17.921  0.00  0.00    -0.061 A 
HETATM   37  C   UNL     1       1.288   6.647  18.557  0.00  0.00     0.014 A 
HETATM   38  C   UNL     1      -0.405   4.726  18.681  0.00  0.00     0.048 C 
ENDBRANCH  31  32
ENDBRANCH  10  31
TORSDOF 10
ENDMDL
MODEL 5
REMARK VINA RESULT:    -7.680      3.757      9.055
REMARK INTER + INTRA:         -12.805
REMARK INTER:                 -11.589
REMARK INTRA:                  -1.216
REMARK UNBOUND:                -1.084
REMARK  10 active torsions:
REMARK  status: ('A' for Active; 'I' for Inactive)
REMARK    1  A    between atoms: N_1  and  C_5 
REMARK    2  A    between atoms: C_5  and  C_6 
REMARK    3  A    between atoms: C_6  and  O_7 
REMARK    4  A    between atoms: O_7  and  C_8 
REMARK    5  A    between atoms: C_8  and  C_9 
REMARK    6  A    between atoms: C_14  and  N_15 
REMARK       I    between atoms: N_15  and  C_17 
REMARK    7  A    between atoms: C_17  and  C_19 
REMARK    8  A    between atoms: C_21  and  O_22 
REMARK    9  A    between atoms: C_29  and  C_30 
REMARK   10  A    between atoms: C_30  and  C_31 
ROOT
HETATM    1  C   UNL     1       4.385   6.690  22.867  0.00  0.00     0.066 C 
HETATM    2  C   UNL     1       3.883   7.542  21.861  0.00  0.00     0.035 C 
HETATM    3  C   UNL     1       5.704   6.215  22.715  0.00  0.00     0.083 C 
HETATM    4  C   UNL     1       6.477   6.500  21.581  0.00  0.00     0.069 C 
HETATM    5  C   UNL     1       5.855   7.209  20.552  0.00  0.00     0.065 C 
HETATM    6  C   UNL     1       4.558   7.695  20.633  0.00  0.00     0.020 C 
HETATM    7  N   UNL     1       6.299   7.606  19.316  0.00  0.00    -0.277 N 
HETATM    8  H   UNL     1       7.222   7.467  18.918  0.00  0.00     0.189 HD
HETATM    9  N   UNL     1       5.365   8.209  18.563  0.00  0.00    -0.178 NA
HETATM   10  C   UNL     1       4.258   8.208  19.328  0.00  0.00     0.071 C 
ENDROOT
BRANCH   1  11
HETATM   11  C   UNL     1       3.564   6.223  24.058  0.00  0.00     0.260 C 
HETATM   12  N   UNL     1       3.006   7.141  25.006  0.00  0.00    -0.318 N 
HETATM   13  C   UNL     1       3.266   8.573  24.902  0.00  0.00     0.159 C 
HETATM   14  O   UNL     1       3.313   5.009  24.060  0.00  0.00    -0.267 OA
BRANCH  12  15
HETATM   15  C   UNL     1       2.131   6.711  26.092  0.00  0.00     0.037 A 
HETATM   16  C   UNL     1       2.650   6.051  27.227  0.00  0.00     0.030 A 
HETATM   17  C   UNL     1       1.856   5.708  28.332  0.00  0.00     0.011 A 
HETATM   18  C   UNL     1       0.507   6.033  28.345  0.00  0.00    -0.035 A 
HETATM   19  C   UNL     1      -0.056   6.606  27.205  0.00  0.00     0.011 A 
HETATM   20  C   UNL     1       0.745   6.937  26.099  0.00  0.00     0.030 A 
BRANCH  18  21
HETATM   21  C   UNL     1      -0.265   5.894  29.629  0.00  0.00     0.206 C 
BRANCH  21  22
HETATM   22  O   UNL     1       0.655   5.834  30.744  0.00  0.00    -0.385 OA
BRANCH  22  23
HETATM   23  C   UNL     1       0.385   6.850  31.723  0.00  0.00     0.195 C 
BRANCH  23  24
HETATM   24  C   UNL     1       1.582   7.791  31.782  0.00  0.00     0.255 C 
BRANCH  24  25
HETATM   25  N   UNL     1       1.307   8.861  32.783  0.00  0.00    -0.077 N 
HETATM   26  H   UNL     1       0.356   9.223  32.611  0.00  0.00     0.274 HD
HETATM   27  H   UNL     1       1.317   8.497  33.744  0.00  0.00     0.274 HD
HETATM   28  H   UNL     1       1.973   9.639  32.715  0.00  0.00     0.274 HD
ENDBRANCH  24  25
ENDBRANCH  23  24
ENDBRANCH  22  23
ENDBRANCH  21  22
ENDBRANCH  18  21
ENDBRANCH  12  15
ENDBRANCH   1  11
BRANCH   3  29
HETATM   29  O   UNL     1       6.339   5.442  23.659  0.00  0.00    -0.360 OA
HETATM   30  H   UNL     1       5.713   5.300  24.403  0.00  0.00     0.217 HD
ENDBRANCH   3  29
BRANCH  10  31
HETATM   31  C   UNL     1       2.945   8.692  18.740  0.00  0.00     0.100 C 
BRANCH  31  32
HETATM   32  C   UNL     1       2.211   7.556  18.012  0.00  0.00    -0.052 A 
HETATM   33  C   UNL     1       2.015   7.549  16.623  0.00  0.00     0.007 A 
HETATM   34  C   UNL     1       1.355   6.501  15.978  0.00  0.00     0.001 A 
HETATM   35  C   UNL     1       0.787   5.472  16.713  0.00  0.00     0.007 A 
HETATM   36  C   UNL     1       0.837   5.499  18.111  0.00  0.00    -0.061 A 
HETATM   37  C   UNL     1       1.581   6.518  18.750  0.00  0.00     0.014 A 
HETATM   38  C   UNL     1       0.075   4.447  18.870  0.00  0.00     0.048 C 
ENDBRANCH  31  32
ENDBRANCH  10  31
TORSDOF 10
ENDMDL
MODEL 6
REMARK VINA RESULT:    -7.577      2.337      4.585
REMARK INTER + INTRA:         -12.648
REMARK INTER:                 -11.546
REMARK INTRA:                  -1.102
REMARK UNBOUND:                -1.084
REMARK  10 active torsions:
REMARK  status: ('A' for Active; 'I' for Inactive)
REMARK    1  A    between atoms: N_1  and  C_5 
REMARK    2  A    between atoms: C_5  and  C_6 
REMARK    3  A    between atoms: C_6  and  O_7 
REMARK    4  A    between atoms: O_7  and  C_8 
REMARK    5  A    between atoms: C_8  and  C_9 
REMARK    6  A    between atoms: C_14  and  N_15 
REMARK       I    between atoms: N_15  and  C_17 
REMARK    7  A    between atoms: C_17  and  C_19 
REMARK    8  A    between atoms: C_21  and  O_22 
REMARK    9  A    between atoms: C_29  and  C_30 
REMARK   10  A    between atoms: C_30  and  C_31 
ROOT
HETATM    1  C   UNL     1       1.365  10.097  25.415  0.00  0.00     0.066 C 
HETATM    2  C   UNL     1       1.295   9.561  26.718  0.00  0.00     0.035 C 
HETATM    3  C   UNL     1       0.308  10.934  25.001  0.00  0.00     0.083 C 
HETATM    4  C   UNL     1      -0.816  11.175  25.805  0.00  0.00     0.069 C 
HETATM    5  C   UNL     1      -0.894  10.478  27.011  0.00  0.00     0.065 C 
HETATM    6  C   UNL     1       0.106   9.632  27.471  0.00  0.00     0.020 C 
HETATM    7  N   UNL     1      -1.855  10.445  27.989  0.00  0.00    -0.277 N 
HETATM    8  H   UNL     1      -2.720  10.975  28.022  0.00  0.00     0.189 HD
HETATM    9  N   UNL     1      -1.604   9.575  28.980  0.00  0.00    -0.178 NA
HETATM   10  C   UNL     1      -0.433   9.004  28.644  0.00  0.00     0.071 C 
ENDROOT
BRANCH   1  11
HETATM   11  C   UNL     1       2.479   9.775  24.433  0.00  0.00     0.260 C 
HETATM   12  N   UNL     1       2.734   8.440  23.980  0.00  0.00    -0.318 N 
HETATM   13  C   UNL     1       1.966   7.314  24.504  0.00  0.00     0.159 C 
HETATM   14  O   UNL     1       3.051  10.770  23.966  0.00  0.00    -0.267 OA
BRANCH  12  15
HETATM   15  C   UNL     1       3.732   8.134  22.961  0.00  0.00     0.037 A 
HETATM   16  C   UNL     1       4.383   6.882  22.933  0.00  0.00     0.030 A 
HETATM   17  C   UNL     1       5.277   6.517  21.915  0.00  0.00     0.011 A 
HETATM   18  C   UNL     1       5.538   7.395  20.873  0.00  0.00    -0.035 A 
HETATM   19  C   UNL     1       4.981   8.672  20.916  0.00  0.00     0.011 A 
HETATM   20  C   UNL     1       4.094   9.032  21.944  0.00  0.00     0.030 A 
BRANCH  18  21
HETATM   21  C   UNL     1       6.288   6.895  19.668  0.00  0.00     0.206 C 
BRANCH  21  22
HETATM   22  O   UNL     1       5.561   7.244  18.466  0.00  0.00    -0.385 OA
BRANCH  22  23
HETATM   23  C   UNL     1       4.521   6.299  18.171  0.00  0.00     0.195 C 
BRANCH  23  24
HETATM   24  C   UNL     1       3.206   7.059  18.034  0.00  0.00     0.255 C 
BRANCH  24  25
HETATM   25  N   UNL     1       2.369   6.797  19.239  0.00  0.00    -0.077 N 
HETATM   26  H   UNL     1       1.856   7.663  19.467  0.00  0.00     0.274 HD
HETATM   27  H   UNL     1       1.663   6.071  19.063  0.00  0.00     0.274 HD
HETATM   28  H   UNL     1       2.931   6.522  20.053  0.00  0.00     0.274 HD
ENDBRANCH  24  25
ENDBRANCH  23  24
ENDBRANCH  22  23
ENDBRANCH  21  22
ENDBRANCH  18  21
ENDBRANCH  12  15
ENDBRANCH   1  11
BRANCH   3  29
HETATM   29  O   UNL     1       0.291  11.581  23.787  0.00  0.00    -0.360 OA
HETATM   30  H   UNL     1       0.039  12.517  23.949  0.00  0.00     0.217 HD
ENDBRANCH   3  29
BRANCH  10  31
HETATM   31  C   UNL     1       0.101   7.851  29.474  0.00  0.00     0.100 C 
BRANCH  31  32
HETATM   32  C   UNL     1       0.124   6.547  28.663  0.00  0.00    -0.052 A 
HETATM   33  C   UNL     1      -0.899   6.192  27.772  0.00  0.00     0.007 A 
HETATM   34  C   UNL     1      -0.855   5.008  27.034  0.00  0.00     0.001 A 
HETATM   35  C   UNL     1       0.170   4.095  27.235  0.00  0.00     0.007 A 
HETATM   36  C   UNL     1       1.145   4.338  28.208  0.00  0.00    -0.061 A 
HETATM   37  C   UNL     1       1.139   5.578  28.887  0.00  0.00     0.014 A 
HETATM   38  C   UNL     1       2.146   3.253  28.499  0.00  0.00     0.048 C 
ENDBRANCH  31  32
ENDBRANCH  10  31
TORSDOF 10
ENDMDL
MODEL 7
REMARK VINA RESULT:    -7.565      2.157      4.552
REMARK INTER + INTRA:         -12.630
REMARK INTER:                 -11.287
REMARK INTRA:                  -1.343
REMARK UNBOUND:                -1.084
REMARK  10 active torsions:
REMARK  status: ('A' for Active; 'I' for Inactive)
REMARK    1  A    between atoms: N_1  and  C_5 
REMARK    2  A    between atoms: C_5  and  C_6 
REMARK    3  A    between atoms: C_6  and  O_7 
REMARK    4  A    between atoms: O_7  and  C_8 
REMARK    5  A    between atoms: C_8  and  C_9 
REMARK    6  A    between atoms: C_14  and  N_15 
REMARK       I    between atoms: N_15  and  C_17 
REMARK    7  A    between atoms: C_17  and  C_19 
REMARK    8  A    between atoms: C_21  and  O_22 
REMARK    9  A    between atoms: C_29  and  C_30 
REMARK   10  A    between atoms: C_30  and  C_31 
ROOT
HETATM    1  C   UNL     1       1.298  10.116  25.420  0.00  0.00     0.066 C 
HETATM    2  C   UNL     1       1.294   9.676  26.761  0.00  0.00     0.035 C 
HETATM    3  C   UNL     1       0.167  10.826  24.968  0.00  0.00     0.083 C 
HETATM    4  C   UNL     1      -0.961  11.030  25.775  0.00  0.00     0.069 C 
HETATM    5  C   UNL     1      -0.961  10.422  27.031  0.00  0.00     0.065 C 
HETATM    6  C   UNL     1       0.114   9.702  27.532  0.00  0.00     0.020 C 
HETATM    7  N   UNL     1      -1.902  10.383  28.029  0.00  0.00    -0.277 N 
HETATM    8  H   UNL     1      -2.808  10.838  28.040  0.00  0.00     0.189 HD
HETATM    9  N   UNL     1      -1.562   9.614  29.076  0.00  0.00    -0.178 NA
HETATM   10  C   UNL     1      -0.351   9.121  28.758  0.00  0.00     0.071 C 
ENDROOT
BRANCH   1  11
HETATM   11  C   UNL     1       2.423   9.815  24.443  0.00  0.00     0.260 C 
HETATM   12  N   UNL     1       2.728   8.482  24.018  0.00  0.00    -0.318 N 
HETATM   13  C   UNL     1       2.006   7.338  24.568  0.00  0.00     0.159 C 
HETATM   14  O   UNL     1       2.954  10.822  23.952  0.00  0.00    -0.267 OA
BRANCH  12  15
HETATM   15  C   UNL     1       3.735   8.193  23.002  0.00  0.00     0.037 A 
HETATM   16  C   UNL     1       4.418   6.958  22.986  0.00  0.00     0.030 A 
HETATM   17  C   UNL     1       5.323   6.608  21.972  0.00  0.00     0.011 A 
HETATM   18  C   UNL     1       5.562   7.483  20.923  0.00  0.00    -0.035 A 
HETATM   19  C   UNL     1       4.971   8.745  20.954  0.00  0.00     0.011 A 
HETATM   20  C   UNL     1       4.075   9.092  21.978  0.00  0.00     0.030 A 
BRANCH  18  21
HETATM   21  C   UNL     1       6.326   6.992  19.722  0.00  0.00     0.206 C 
BRANCH  21  22
HETATM   22  O   UNL     1       5.583   7.295  18.518  0.00  0.00    -0.385 OA
BRANCH  22  23
HETATM   23  C   UNL     1       4.555   6.325  18.259  0.00  0.00     0.195 C 
BRANCH  23  24
HETATM   24  C   UNL     1       3.231   7.061  18.090  0.00  0.00     0.255 C 
BRANCH  24  25
HETATM   25  N   UNL     1       2.379   6.805  19.285  0.00  0.00    -0.077 N 
HETATM   26  H   UNL     1       2.997   6.730  20.109  0.00  0.00     0.274 HD
HETATM   27  H   UNL     1       1.733   7.583  19.468  0.00  0.00     0.274 HD
HETATM   28  H   UNL     1       1.838   5.937  19.200  0.00  0.00     0.274 HD
ENDBRANCH  24  25
ENDBRANCH  23  24
ENDBRANCH  22  23
ENDBRANCH  21  22
ENDBRANCH  18  21
ENDBRANCH  12  15
ENDBRANCH   1  11
BRANCH   3  29
HETATM   29  O   UNL     1       0.077  11.375  23.711  0.00  0.00    -0.360 OA
HETATM   30  H   UNL     1       0.085  10.640  23.059  0.00  0.00     0.217 HD
ENDBRANCH   3  29
BRANCH  10  31
HETATM   31  C   UNL     1       0.292   8.084  29.661  0.00  0.00     0.100 C 
BRANCH  31  32
HETATM   32  C   UNL     1       0.688   6.829  28.869  0.00  0.00    -0.052 A 
HETATM   33  C   UNL     1       2.015   6.546  28.512  0.00  0.00     0.007 A 
HETATM   34  C   UNL     1       2.357   5.395  27.802  0.00  0.00     0.001 A 
HETATM   35  C   UNL     1       1.370   4.534  27.344  0.00  0.00     0.007 A 
HETATM   36  C   UNL     1       0.022   4.838  27.556  0.00  0.00    -0.061 A 
HETATM   37  C   UNL     1      -0.310   5.961  28.350  0.00  0.00     0.014 A 
HETATM   38  C   UNL     1      -1.016   3.961  26.910  0.00  0.00     0.048 C 
ENDBRANCH  31  32
ENDBRANCH  10  31
TORSDOF 10
ENDMDL
MODEL 8
REMARK VINA RESULT:    -7.525      2.483      8.614
REMARK INTER + INTRA:         -12.569
REMARK INTER:                 -11.938
REMARK INTRA:                  -0.631
REMARK UNBOUND:                -1.084
REMARK  10 active torsions:
REMARK  status: ('A' for Active; 'I' for Inactive)
REMARK    1  A    between atoms: N_1  and  C_5 
REMARK    2  A    between atoms: C_5  and  C_6 
REMARK    3  A    between atoms: C_6  and  O_7 
REMARK    4  A    between atoms: O_7  and  C_8 
REMARK    5  A    between atoms: C_8  and  C_9 
REMARK    6  A    between atoms: C_14  and  N_15 
REMARK       I    between atoms: N_15  and  C_17 
REMARK    7  A    between atoms: C_17  and  C_19 
REMARK    8  A    between atoms: C_21  and  O_22 
REMARK    9  A    between atoms: C_29  and  C_30 
REMARK   10  A    between atoms: C_30  and  C_31 
ROOT
HETATM    1  C   UNL     1       4.264   7.259  22.898  0.00  0.00     0.066 C 
HETATM    2  C   UNL     1       3.849   7.985  21.762  0.00  0.00     0.035 C 
HETATM    3  C   UNL     1       5.443   6.496  22.784  0.00  0.00     0.083 C 
HETATM    4  C   UNL     1       6.150   6.385  21.577  0.00  0.00     0.069 C 
HETATM    5  C   UNL     1       5.588   6.994  20.455  0.00  0.00     0.065 C 
HETATM    6  C   UNL     1       4.425   7.750  20.497  0.00  0.00     0.020 C 
HETATM    7  N   UNL     1       5.985   7.039  19.142  0.00  0.00    -0.277 N 
HETATM    8  H   UNL     1       6.822   6.634  18.737  0.00  0.00     0.189 HD
HETATM    9  N   UNL     1       5.123   7.668  18.327  0.00  0.00    -0.178 NA
HETATM   10  C   UNL     1       4.113   8.051  19.130  0.00  0.00     0.071 C 
ENDROOT
BRANCH   1  11
HETATM   11  C   UNL     1       3.480   7.218  24.200  0.00  0.00     0.260 C 
HETATM   12  N   UNL     1       3.009   8.408  24.844  0.00  0.00    -0.318 N 
HETATM   13  C   UNL     1       3.327   9.726  24.305  0.00  0.00     0.159 C 
HETATM   14  O   UNL     1       3.176   6.077  24.575  0.00  0.00    -0.267 OA
BRANCH  12  15
HETATM   15  C   UNL     1       2.168   8.373  26.037  0.00  0.00     0.037 A 
HETATM   16  C   UNL     1       2.667   8.788  27.290  0.00  0.00     0.030 A 
HETATM   17  C   UNL     1       1.863   8.859  28.438  0.00  0.00     0.011 A 
HETATM   18  C   UNL     1       0.517   8.531  28.364  0.00  0.00    -0.035 A 
HETATM   19  C   UNL     1       0.013   8.034  27.163  0.00  0.00     0.011 A 
HETATM   20  C   UNL     1       0.827   7.957  26.021  0.00  0.00     0.030 A 
BRANCH  18  21
HETATM   21  C   UNL     1      -0.379   8.858  29.528  0.00  0.00     0.206 C 
BRANCH  21  22
HETATM   22  O   UNL     1      -1.531   9.599  29.059  0.00  0.00    -0.385 OA
BRANCH  22  23
HETATM   23  C   UNL     1      -1.157  10.828  28.417  0.00  0.00     0.195 C 
BRANCH  23  24
HETATM   24  C   UNL     1      -1.819  10.873  27.044  0.00  0.00     0.255 C 
BRANCH  24  25
HETATM   25  N   UNL     1      -1.033  11.777  26.158  0.00  0.00    -0.077 N 
HETATM   26  H   UNL     1      -1.552  12.664  26.064  0.00  0.00     0.274 HD
HETATM   27  H   UNL     1      -0.118  12.010  26.564  0.00  0.00     0.274 HD
HETATM   28  H   UNL     1      -0.889  11.379  25.223  0.00  0.00     0.274 HD
ENDBRANCH  24  25
ENDBRANCH  23  24
ENDBRANCH  22  23
ENDBRANCH  21  22
ENDBRANCH  18  21
ENDBRANCH  12  15
ENDBRANCH   1  11
BRANCH   3  29
HETATM   29  O   UNL     1       5.998   5.805  23.836  0.00  0.00    -0.360 OA
HETATM   30  H   UNL     1       5.602   6.152  24.666  0.00  0.00     0.217 HD
ENDBRANCH   3  29
BRANCH  10  31
HETATM   31  C   UNL     1       2.872   8.677  18.519  0.00  0.00     0.100 C 
BRANCH  31  32
HETATM   32  C   UNL     1       2.012   7.624  17.807  0.00  0.00    -0.052 A 
HETATM   33  C   UNL     1       1.785   7.642  16.422  0.00  0.00     0.007 A 
HETATM   34  C   UNL     1       1.009   6.669  15.790  0.00  0.00     0.001 A 
HETATM   35  C   UNL     1       0.357   5.698  16.537  0.00  0.00     0.007 A 
HETATM   36  C   UNL     1       0.441   5.714  17.933  0.00  0.00    -0.061 A 
HETATM   37  C   UNL     1       1.298   6.651  18.556  0.00  0.00     0.014 A 
HETATM   38  C   UNL     1      -0.405   4.740  18.708  0.00  0.00     0.048 C 
ENDBRANCH  31  32
ENDBRANCH  10  31
TORSDOF 10
ENDMDL
MODEL 9
REMARK VINA RESULT:    -7.369      2.470      4.930
REMARK INTER + INTRA:         -12.331
REMARK INTER:                 -11.247
REMARK INTRA:                  -1.084
REMARK UNBOUND:                -1.084
REMARK  10 active torsions:
REMARK  status: ('A' for Active; 'I' for Inactive)
REMARK    1  A    between atoms: N_1  and  C_5 
REMARK    2  A    between atoms: C_5  and  C_6 
REMARK    3  A    between atoms: C_6  and  O_7 
REMARK    4  A    between atoms: O_7  and  C_8 
REMARK    5  A    between atoms: C_8  and  C_9 
REMARK    6  A    between atoms: C_14  and  N_15 
REMARK       I    between atoms: N_15  and  C_17 
REMARK    7  A    between atoms: C_17  and  C_19 
REMARK    8  A    between atoms: C_21  and  O_22 
REMARK    9  A    between atoms: C_29  and  C_30 
REMARK   10  A    between atoms: C_30  and  C_31 
ROOT
HETATM    1  C   UNL     1       1.438   9.374  25.682  0.00  0.00     0.066 C 
HETATM    2  C   UNL     1       1.637   8.956  27.015  0.00  0.00     0.035 C 
HETATM    3  C   UNL     1       0.312  10.181  25.417  0.00  0.00     0.083 C 
HETATM    4  C   UNL     1      -0.628  10.502  26.407  0.00  0.00     0.069 C 
HETATM    5  C   UNL     1      -0.456   9.914  27.661  0.00  0.00     0.065 C 
HETATM    6  C   UNL     1       0.624   9.103  27.983  0.00  0.00     0.020 C 
HETATM    7  N   UNL     1      -1.200   9.977  28.811  0.00  0.00    -0.277 N 
HETATM    8  H   UNL     1      -2.044  10.515  28.971  0.00  0.00     0.189 HD
HETATM    9  N   UNL     1      -0.746   9.195  29.804  0.00  0.00    -0.178 NA
HETATM   10  C   UNL     1       0.338   8.586  29.290  0.00  0.00     0.071 C 
ENDROOT
BRANCH   1  11
HETATM   11  C   UNL     1       2.335   8.956  24.528  0.00  0.00     0.260 C 
HETATM   12  N   UNL     1       2.556   7.581  24.194  0.00  0.00    -0.318 N 
HETATM   13  C   UNL     1       1.976   6.513  25.002  0.00  0.00     0.159 C 
HETATM   14  O   UNL     1       2.743   9.897  23.833  0.00  0.00    -0.267 OA
BRANCH  12  15
HETATM   15  C   UNL     1       3.331   7.172  23.027  0.00  0.00     0.037 A 
HETATM   16  C   UNL     1       2.956   6.046  22.263  0.00  0.00     0.030 A 
HETATM   17  C   UNL     1       3.619   5.679  21.082  0.00  0.00     0.011 A 
HETATM   18  C   UNL     1       4.678   6.443  20.614  0.00  0.00    -0.035 A 
HETATM   19  C   UNL     1       5.130   7.509  21.390  0.00  0.00     0.011 A 
HETATM   20  C   UNL     1       4.467   7.865  22.576  0.00  0.00     0.030 A 
BRANCH  18  21
HETATM   21  C   UNL     1       5.205   6.189  19.227  0.00  0.00     0.206 C 
BRANCH  21  22
HETATM   22  O   UNL     1       4.782   7.257  18.346  0.00  0.00    -0.385 OA
BRANCH  22  23
HETATM   23  C   UNL     1       3.435   7.072  17.881  0.00  0.00     0.195 C 
BRANCH  23  24
HETATM   24  C   UNL     1       2.627   8.312  18.245  0.00  0.00     0.255 C 
BRANCH  24  25
HETATM   25  N   UNL     1       1.590   8.537  17.197  0.00  0.00    -0.077 N 
HETATM   26  H   UNL     1       1.681   9.509  16.861  0.00  0.00     0.274 HD
HETATM   27  H   UNL     1       1.731   7.927  16.383  0.00  0.00     0.274 HD
HETATM   28  H   UNL     1       0.638   8.400  17.555  0.00  0.00     0.274 HD
ENDBRANCH  24  25
ENDBRANCH  23  24
ENDBRANCH  22  23
ENDBRANCH  21  22
ENDBRANCH  18  21
ENDBRANCH  12  15
ENDBRANCH   1  11
BRANCH   3  29
HETATM   29  O   UNL     1       0.046  10.719  24.180  0.00  0.00    -0.360 OA
HETATM   30  H   UNL     1       0.890  10.753  23.678  0.00  0.00     0.217 HD
ENDBRANCH   3  29
BRANCH  10  31
HETATM   31  C   UNL     1       1.038   7.506  30.094  0.00  0.00     0.100 C 
BRANCH  31  32
HETATM   32  C   UNL     1       1.079   6.178  29.323  0.00  0.00    -0.052 A 
HETATM   33  C   UNL     1       2.236   5.391  29.230  0.00  0.00     0.007 A 
HETATM   34  C   UNL     1       2.250   4.182  28.534  0.00  0.00     0.001 A 
HETATM   35  C   UNL     1       1.131   3.765  27.829  0.00  0.00     0.007 A 
HETATM   36  C   UNL     1      -0.007   4.577  27.777  0.00  0.00    -0.061 A 
HETATM   37  C   UNL     1      -0.041   5.758  28.556  0.00  0.00     0.014 A 
HETATM   38  C   UNL     1      -1.138   4.161  26.877  0.00  0.00     0.048 C 
ENDBRANCH  31  32
ENDBRANCH  10  31
TORSDOF 10
ENDMDL
