REMARK  10 active torsions:
REMARK  status: ('A' for Active; 'I' for Inactive)
REMARK    1  A    between atoms: N_1  and  C_5 
REMARK    2  A    between atoms: C_5  and  C_6 
REMARK    3  A    between atoms: C_6  and  O_7 
REMARK    4  A    between atoms: O_7  and  C_8 
REMARK    5  A    between atoms: C_8  and  C_9 
REMARK    6  A    between atoms: C_14  and  N_15 
REMARK       I    between atoms: N_15  and  C_17 
REMARK    7  A    between atoms: C_17  and  C_19 
REMARK    8  A    between atoms: C_21  and  O_22 
REMARK    9  A    between atoms: C_29  and  C_30 
REMARK   10  A    between atoms: C_30  and  C_31 
ROOT
HETATM    1  C   UNL     1      12.884  -3.991   0.170  0.00  0.00     0.066 C 
HETATM    2  C   UNL     1      13.590  -2.769   0.176  0.00  0.00     0.035 C 
HETATM    3  C   UNL     1      13.607  -5.155  -0.162  0.00  0.00     0.083 C 
HETATM    4  C   UNL     1      14.954  -5.115  -0.550  0.00  0.00     0.069 C 
HETATM    5  C   UNL     1      15.539  -3.855  -0.683  0.00  0.00     0.065 C 
HETATM    6  C   UNL     1      14.880  -2.671  -0.383  0.00  0.00     0.020 C 
HETATM    7  N   UNL     1      16.793  -3.465  -1.079  0.00  0.00    -0.277 N 
HETATM    8  H   UNL     1      17.572  -4.062  -1.336  0.00  0.00     0.189 HD
HETATM    9  N   UNL     1      16.957  -2.135  -1.158  0.00  0.00    -0.178 NA
HETATM   10  C   UNL     1      15.764  -1.623  -0.805  0.00  0.00     0.071 C 
ENDROOT
BRANCH   1  11
HETATM   11  C   UNL     1      11.393  -4.100   0.445  0.00  0.00     0.260 C 
HETATM   12  N   UNL     1      10.480  -3.043   0.127  0.00  0.00    -0.318 N 
HETATM   13  C   UNL     1      10.962  -1.777  -0.417  0.00  0.00     0.159 C 
HETATM   14  O   UNL     1      11.028  -5.217   0.838  0.00  0.00    -0.267 OA
BRANCH  12  15
HETATM   15  C   UNL     1       9.036  -3.178   0.291  0.00  0.00     0.037 A 
HETATM   16  C   UNL     1       8.144  -2.320  -0.387  0.00  0.00     0.030 A 
HETATM   17  C   UNL     1       6.751  -2.479  -0.329  0.00  0.00     0.011 A 
HETATM   18  C   UNL     1       6.201  -3.522   0.402  0.00  0.00    -0.035 A 
HETATM   19  C   UNL     1       7.049  -4.334   1.154  0.00  0.00     0.011 A 
HETATM   20  C   UNL     1       8.442  -4.162   1.098  0.00  0.00     0.030 A 
BRANCH  18  21
HETATM   21  C   UNL     1       4.737  -3.832   0.245  0.00  0.00     0.206 C 
BRANCH  21  22
HETATM   22  O   UNL     1       4.447  -4.110  -1.145  0.00  0.00    -0.385 OA
BRANCH  22  23
HETATM   23  C   UNL     1       5.098  -5.306  -1.604  0.00  0.00     0.195 C 
BRANCH  23  24
HETATM   24  C   UNL     1       4.660  -5.570  -3.040  0.00  0.00     0.255 C 
BRANCH  24  25
HETATM   25  N   UNL     1       4.914  -4.348  -3.855  0.00  0.00    -0.077 N 
HETATM   26  H   UNL     1       4.410  -3.561  -3.417  0.00  0.00     0.274 HD
HETATM   27  H   UNL     1       5.910  -4.095  -3.864  0.00  0.00     0.274 HD
HETATM   28  H   UNL     1       4.589  -4.450  -4.823  0.00  0.00     0.274 HD
ENDBRANCH  24  25
ENDBRANCH  23  24
ENDBRANCH  22  23
ENDBRANCH  21  22
ENDBRANCH  18  21
ENDBRANCH  12  15
ENDBRANCH   1  11
BRANCH   3  29
HETATM   29  O   UNL     1      13.059  -6.416  -0.130  0.00  0.00    -0.360 OA
HETATM   30  H   UNL     1      12.184  -6.353   0.312  0.00  0.00     0.217 HD
ENDBRANCH   3  29
BRANCH  10  31
HETATM   31  C   UNL     1      15.532  -0.127  -0.916  0.00  0.00     0.100 C 
BRANCH  31  32
HETATM   32  C   UNL     1      15.060   0.258  -2.326  0.00  0.00    -0.052 A 
HETATM   33  C   UNL     1      15.319  -0.535  -3.454  0.00  0.00     0.007 A 
HETATM   34  C   UNL     1      14.872  -0.174  -4.726  0.00  0.00     0.001 A 
HETATM   35  C   UNL     1      14.231   1.040  -4.926  0.00  0.00     0.007 A 
HETATM   36  C   UNL     1      14.066   1.929  -3.859  0.00  0.00    -0.061 A 
HETATM   37  C   UNL     1      14.445   1.517  -2.560  0.00  0.00     0.014 A 
HETATM   38  C   UNL     1      13.507   3.295  -4.151  0.00  0.00     0.048 C 
ENDBRANCH  31  32
ENDBRANCH  10  31
TORSDOF 10
