MODEL 1
REMARK VINA RESULT:    -8.924      0.000      0.000
REMARK INTER + INTRA:         -13.042
REMARK INTER:                 -12.054
REMARK INTRA:                  -0.988
REMARK UNBOUND:                -1.248
REMARK  6 active torsions:
REMARK  status: ('A' for Active; 'I' for Inactive)
REMARK    1  A    between atoms: N_8  and  C_9 
REMARK    2  A    between atoms: C_14  and  N_15 
REMARK       I    between atoms: N_15  and  C_17 
REMARK    3  A    between atoms: C_17  and  C_19 
REMARK    4  A    between atoms: C_21  and  O_22 
REMARK    5  A    between atoms: C_29  and  C_30 
REMARK    6  A    between atoms: C_30  and  C_31 
ROOT
HETATM    1  C   UNL     1       8.847  10.629  23.352  0.00  0.00     0.066 C 
HETATM    2  C   UNL     1       8.621  11.631  24.324  0.00  0.00     0.035 C 
HETATM    3  C   UNL     1      10.182  10.227  23.122  0.00  0.00     0.083 C 
HETATM    4  C   UNL     1      11.268  10.850  23.746  0.00  0.00     0.069 C 
HETATM    5  C   UNL     1      10.982  11.955  24.550  0.00  0.00     0.065 A 
HETATM    6  C   UNL     1       9.693  12.392  24.826  0.00  0.00     0.020 A 
HETATM    7  N   UNL     1      11.801  12.811  25.238  0.00  0.00    -0.277 N 
HETATM    8  H   UNL     1      12.810  12.764  25.326  0.00  0.00     0.189 HD
HETATM    9  N   UNL     1      11.156  13.834  25.826  0.00  0.00    -0.178 NA
HETATM   10  C   UNL     1       9.856  13.609  25.567  0.00  0.00     0.071 A 
ENDROOT
BRANCH   1  11
HETATM   11  C   UNL     1       7.739   9.999  22.539  0.00  0.00     0.260 C 
HETATM   12  N   UNL     1       7.209  10.637  21.373  0.00  0.00    -0.318 N 
HETATM   13  C   UNL     1       7.790  11.888  20.868  0.00  0.00     0.159 C 
HETATM   14  O   UNL     1       7.393   8.882  22.935  0.00  0.00    -0.267 OA
BRANCH  12  15
HETATM   15  C   UNL     1       6.167  10.054  20.532  0.00  0.00     0.037 A 
HETATM   16  C   UNL     1       5.913  10.558  19.248  0.00  0.00     0.032 A 
HETATM   17  C   UNL     1       5.080   9.903  18.317  0.00  0.00     0.031 A 
HETATM   18  C   UNL     1       4.408   8.730  18.637  0.00  0.00     0.030 A 
HETATM   19  C   UNL     1       4.544   8.310  19.967  0.00  0.00     0.031 A 
HETATM   20  C   UNL     1       5.407   8.943  20.894  0.00  0.00     0.032 A 
BRANCH  18  21
HETATM   21  N   UNL     1       3.622   8.042  17.728  0.00  0.00    -0.378 N 
HETATM   22  C   UNL     1       2.395   7.319  18.105  0.00  0.00     0.150 C 
HETATM   23  C   UNL     1       2.375   5.954  17.384  0.00  0.00     0.252 C 
HETATM   24  N   UNL     1       2.581   6.120  15.893  0.00  0.00    -0.072 N 
HETATM   25  H   UNL     1       1.755   6.577  15.486  0.00  0.00     0.277 HD
HETATM   26  H   UNL     1       2.657   5.194  15.455  0.00  0.00     0.277 HD
HETATM   27  C   UNL     1       3.815   6.932  15.558  0.00  0.00     0.252 C 
HETATM   28  C   UNL     1       3.763   8.289  16.282  0.00  0.00     0.150 C 
ENDBRANCH  18  21
ENDBRANCH  12  15
ENDBRANCH   1  11
BRANCH   3  29
HETATM   29  O   UNL     1      10.520   9.200  22.269  0.00  0.00    -0.360 OA
HETATM   30  H   UNL     1       9.691   8.756  21.986  0.00  0.00     0.217 HD
ENDBRANCH   3  29
BRANCH  10  31
HETATM   31  C   UNL     1       8.835  14.606  26.063  0.00  0.00     0.100 C 
BRANCH  31  32
HETATM   32  C   UNL     1       7.839  15.004  24.974  0.00  0.00    -0.052 A 
HETATM   33  C   UNL     1       8.216  15.289  23.654  0.00  0.00     0.007 A 
HETATM   34  C   UNL     1       7.269  15.654  22.693  0.00  0.00     0.001 A 
HETATM   35  C   UNL     1       5.937  15.833  23.046  0.00  0.00     0.007 A 
HETATM   36  C   UNL     1       5.541  15.692  24.378  0.00  0.00    -0.061 A 
HETATM   37  C   UNL     1       6.484  15.236  25.323  0.00  0.00     0.014 A 
HETATM   38  C   UNL     1       4.129  16.045  24.757  0.00  0.00     0.048 C 
ENDBRANCH  31  32
ENDBRANCH  10  31
TORSDOF 6
ENDMDL
MODEL 2
REMARK VINA RESULT:    -8.422      3.599      4.421
REMARK INTER + INTRA:         -12.378
REMARK INTER:                 -11.060
REMARK INTRA:                  -1.318
REMARK UNBOUND:                -1.248
REMARK  6 active torsions:
REMARK  status: ('A' for Active; 'I' for Inactive)
REMARK    1  A    between atoms: N_8  and  C_9 
REMARK    2  A    between atoms: C_14  and  N_15 
REMARK       I    between atoms: N_15  and  C_17 
REMARK    3  A    between atoms: C_17  and  C_19 
REMARK    4  A    between atoms: C_21  and  O_22 
REMARK    5  A    between atoms: C_29  and  C_30 
REMARK    6  A    between atoms: C_30  and  C_31 
ROOT
HETATM    1  C   UNL     1       9.945  10.590  23.211  0.00  0.00     0.066 C 
HETATM    2  C   UNL     1       9.710  11.822  23.863  0.00  0.00     0.035 C 
HETATM    3  C   UNL     1      10.892  10.573  22.162  0.00  0.00     0.083 C 
HETATM    4  C   UNL     1      11.515  11.736  21.699  0.00  0.00     0.069 C 
HETATM    5  C   UNL     1      11.095  12.942  22.263  0.00  0.00     0.065 A 
HETATM    6  C   UNL     1      10.179  13.025  23.304  0.00  0.00     0.020 A 
HETATM    7  N   UNL     1      11.446  14.239  21.997  0.00  0.00    -0.277 N 
HETATM    8  H   UNL     1      12.144  14.566  21.338  0.00  0.00     0.189 HD
HETATM    9  N   UNL     1      10.742  15.152  22.687  0.00  0.00    -0.178 NA
HETATM   10  C   UNL     1       9.938  14.427  23.485  0.00  0.00     0.071 A 
ENDROOT
BRANCH   1  11
HETATM   11  C   UNL     1       9.216   9.313  23.564  0.00  0.00     0.260 C 
HETATM   12  N   UNL     1       7.882   9.063  23.113  0.00  0.00    -0.318 N 
HETATM   13  C   UNL     1       7.204  10.000  22.208  0.00  0.00     0.159 C 
HETATM   14  O   UNL     1       9.892   8.506  24.209  0.00  0.00    -0.267 OA
BRANCH  12  15
HETATM   15  C   UNL     1       7.148   7.832  23.393  0.00  0.00     0.037 A 
HETATM   16  C   UNL     1       6.048   7.833  24.263  0.00  0.00     0.032 A 
HETATM   17  C   UNL     1       5.177   6.731  24.399  0.00  0.00     0.031 A 
HETATM   18  C   UNL     1       5.388   5.543  23.711  0.00  0.00     0.030 A 
HETATM   19  C   UNL     1       6.569   5.492  22.960  0.00  0.00     0.031 A 
HETATM   20  C   UNL     1       7.428   6.606  22.791  0.00  0.00     0.032 A 
BRANCH  18  21
HETATM   21  N   UNL     1       4.523   4.465  23.790  0.00  0.00    -0.378 N 
HETATM   22  C   UNL     1       3.783   3.936  22.631  0.00  0.00     0.150 C 
HETATM   23  C   UNL     1       2.329   3.640  23.057  0.00  0.00     0.252 C 
HETATM   24  N   UNL     1       2.288   2.761  24.289  0.00  0.00    -0.072 N 
HETATM   25  H   UNL     1       2.625   1.821  24.047  0.00  0.00     0.277 HD
HETATM   26  H   UNL     1       1.316   2.660  24.603  0.00  0.00     0.277 HD
HETATM   27  C   UNL     1       3.123   3.310  25.429  0.00  0.00     0.252 C 
HETATM   28  C   UNL     1       4.564   3.557  24.951  0.00  0.00     0.150 C 
ENDBRANCH  18  21
ENDBRANCH  12  15
ENDBRANCH   1  11
BRANCH   3  29
HETATM   29  O   UNL     1      11.273   9.419  21.515  0.00  0.00    -0.360 OA
HETATM   30  H   UNL     1      11.990   9.647  20.884  0.00  0.00     0.217 HD
ENDBRANCH   3  29
BRANCH  10  31
HETATM   31  C   UNL     1       8.969  15.153  24.389  0.00  0.00     0.100 C 
BRANCH  31  32
HETATM   32  C   UNL     1       7.518  14.976  23.941  0.00  0.00    -0.052 A 
HETATM   33  C   UNL     1       7.156  14.407  22.712  0.00  0.00     0.007 A 
HETATM   34  C   UNL     1       5.814  14.270  22.345  0.00  0.00     0.001 A 
HETATM   35  C   UNL     1       4.805  14.781  23.152  0.00  0.00     0.007 A 
HETATM   36  C   UNL     1       5.127  15.476  24.320  0.00  0.00    -0.061 A 
HETATM   37  C   UNL     1       6.477  15.530  24.728  0.00  0.00     0.014 A 
HETATM   38  C   UNL     1       4.025  16.152  25.089  0.00  0.00     0.048 C 
ENDBRANCH  31  32
ENDBRANCH  10  31
TORSDOF 6
ENDMDL
MODEL 3
REMARK VINA RESULT:    -8.384      2.123      3.354
REMARK INTER + INTRA:         -12.328
REMARK INTER:                 -10.956
REMARK INTRA:                  -1.371
REMARK UNBOUND:                -1.248
REMARK  6 active torsions:
REMARK  status: ('A' for Active; 'I' for Inactive)
REMARK    1  A    between atoms: N_8  and  C_9 
REMARK    2  A    between atoms: C_14  and  N_15 
REMARK       I    between atoms: N_15  and  C_17 
REMARK    3  A    between atoms: C_17  and  C_19 
REMARK    4  A    between atoms: C_21  and  O_22 
REMARK    5  A    between atoms: C_29  and  C_30 
REMARK    6  A    between atoms: C_30  and  C_31 
ROOT
HETATM    1  C   UNL     1       7.198  11.638  21.736  0.00  0.00     0.066 C 
HETATM    2  C   UNL     1       6.457  12.728  22.249  0.00  0.00     0.035 C 
HETATM    3  C   UNL     1       8.430  11.332  22.355  0.00  0.00     0.083 C 
HETATM    4  C   UNL     1       8.970  12.122  23.375  0.00  0.00     0.069 C 
HETATM    5  C   UNL     1       8.276  13.288  23.703  0.00  0.00     0.065 A 
HETATM    6  C   UNL     1       7.055  13.639  23.141  0.00  0.00     0.020 A 
HETATM    7  N   UNL     1       8.558  14.292  24.591  0.00  0.00    -0.277 N 
HETATM    8  H   UNL     1       9.341  14.347  25.233  0.00  0.00     0.189 HD
HETATM    9  N   UNL     1       7.691  15.318  24.553  0.00  0.00    -0.178 NA
HETATM   10  C   UNL     1       6.766  14.947  23.650  0.00  0.00     0.071 A 
ENDROOT
BRANCH   1  11
HETATM   11  C   UNL     1       6.746  10.816  20.551  0.00  0.00     0.260 C 
HETATM   12  N   UNL     1       5.938   9.647  20.714  0.00  0.00    -0.318 N 
HETATM   13  C   UNL     1       5.437   9.255  22.037  0.00  0.00     0.159 C 
HETATM   14  O   UNL     1       7.083  11.279  19.456  0.00  0.00    -0.267 OA
BRANCH  12  15
HETATM   15  C   UNL     1       5.443   8.841  19.600  0.00  0.00     0.037 A 
HETATM   16  C   UNL     1       5.851   7.509  19.441  0.00  0.00     0.032 A 
HETATM   17  C   UNL     1       5.244   6.626  18.522  0.00  0.00     0.031 A 
HETATM   18  C   UNL     1       4.228   7.040  17.671  0.00  0.00     0.030 A 
HETATM   19  C   UNL     1       3.926   8.407  17.728  0.00  0.00     0.031 A 
HETATM   20  C   UNL     1       4.506   9.290  18.672  0.00  0.00     0.032 A 
BRANCH  18  21
HETATM   21  N   UNL     1       3.584   6.183  16.796  0.00  0.00    -0.378 N 
HETATM   22  C   UNL     1       3.297   6.528  15.393  0.00  0.00     0.150 C 
HETATM   23  C   UNL     1       1.859   6.079  15.050  0.00  0.00     0.252 C 
HETATM   24  N   UNL     1       1.642   4.623  15.402  0.00  0.00    -0.072 N 
HETATM   25  H   UNL     1       2.197   4.035  14.767  0.00  0.00     0.277 HD
HETATM   26  H   UNL     1       0.656   4.379  15.252  0.00  0.00     0.277 HD
HETATM   27  C   UNL     1       2.022   4.303  16.834  0.00  0.00     0.252 C 
HETATM   28  C   UNL     1       3.470   4.747  17.105  0.00  0.00     0.150 C 
ENDBRANCH  18  21
ENDBRANCH  12  15
ENDBRANCH   1  11
BRANCH   3  29
HETATM   29  O   UNL     1       9.194  10.241  22.006  0.00  0.00    -0.360 OA
HETATM   30  H   UNL     1       8.608   9.589  21.565  0.00  0.00     0.217 HD
ENDBRANCH   3  29
BRANCH  10  31
HETATM   31  C   UNL     1       5.639  15.903  23.333  0.00  0.00     0.100 C 
BRANCH  31  32
HETATM   32  C   UNL     1       4.275  15.339  23.727  0.00  0.00    -0.052 A 
HETATM   33  C   UNL     1       3.807  15.308  25.049  0.00  0.00     0.007 A 
HETATM   34  C   UNL     1       2.552  14.778  25.361  0.00  0.00     0.001 A 
HETATM   35  C   UNL     1       1.772  14.181  24.377  0.00  0.00     0.007 A 
HETATM   36  C   UNL     1       2.258  14.068  23.073  0.00  0.00    -0.061 A 
HETATM   37  C   UNL     1       3.484  14.686  22.747  0.00  0.00     0.014 A 
HETATM   38  C   UNL     1       1.462  13.280  22.068  0.00  0.00     0.048 C 
ENDBRANCH  31  32
ENDBRANCH  10  31
TORSDOF 6
ENDMDL
MODEL 4
REMARK VINA RESULT:    -8.314      3.469      4.969
REMARK INTER + INTRA:         -12.235
REMARK INTER:                 -11.420
REMARK INTRA:                  -0.816
REMARK UNBOUND:                -1.248
REMARK  6 active torsions:
REMARK  status: ('A' for Active; 'I' for Inactive)
REMARK    1  A    between atoms: N_8  and  C_9 
REMARK    2  A    between atoms: C_14  and  N_15 
REMARK       I    between atoms: N_15  and  C_17 
REMARK    3  A    between atoms: C_17  and  C_19 
REMARK    4  A    between atoms: C_21  and  O_22 
REMARK    5  A    between atoms: C_29  and  C_30 
REMARK    6  A    between atoms: C_30  and  C_31 
ROOT
HETATM    1  C   UNL     1       5.292  12.549  21.726  0.00  0.00     0.066 C 
HETATM    2  C   UNL     1       4.379  12.892  22.751  0.00  0.00     0.035 C 
HETATM    3  C   UNL     1       6.500  13.277  21.653  0.00  0.00     0.083 C 
HETATM    4  C   UNL     1       6.767  14.368  22.487  0.00  0.00     0.069 C 
HETATM    5  C   UNL     1       5.743  14.767  23.348  0.00  0.00     0.065 A 
HETATM    6  C   UNL     1       4.539  14.087  23.477  0.00  0.00     0.020 A 
HETATM    7  N   UNL     1       5.655  15.812  24.230  0.00  0.00    -0.277 N 
HETATM    8  H   UNL     1       6.374  16.489  24.457  0.00  0.00     0.189 HD
HETATM    9  N   UNL     1       4.453  15.935  24.817  0.00  0.00    -0.178 NA
HETATM   10  C   UNL     1       3.740  14.894  24.352  0.00  0.00     0.071 A 
ENDROOT
BRANCH   1  11
HETATM   11  C   UNL     1       5.020  11.470  20.703  0.00  0.00     0.260 C 
HETATM   12  N   UNL     1       5.653  10.190  20.777  0.00  0.00    -0.318 N 
HETATM   13  C   UNL     1       6.522   9.843  21.908  0.00  0.00     0.159 C 
HETATM   14  O   UNL     1       4.172  11.776  19.858  0.00  0.00    -0.267 OA
BRANCH  12  15
HETATM   15  C   UNL     1       5.396   9.102  19.837  0.00  0.00     0.037 A 
HETATM   16  C   UNL     1       4.666   7.970  20.229  0.00  0.00     0.032 A 
HETATM   17  C   UNL     1       4.203   7.000  19.315  0.00  0.00     0.031 A 
HETATM   18  C   UNL     1       4.491   7.079  17.958  0.00  0.00     0.030 A 
HETATM   19  C   UNL     1       5.345   8.127  17.592  0.00  0.00     0.031 A 
HETATM   20  C   UNL     1       5.782   9.124  18.498  0.00  0.00     0.032 A 
BRANCH  18  21
HETATM   21  N   UNL     1       4.010   6.168  17.034  0.00  0.00    -0.378 N 
HETATM   22  C   UNL     1       3.694   6.523  15.639  0.00  0.00     0.150 C 
HETATM   23  C   UNL     1       2.354   5.862  15.245  0.00  0.00     0.252 C 
HETATM   24  N   UNL     1       2.372   4.375  15.533  0.00  0.00    -0.072 N 
HETATM   25  H   UNL     1       3.026   3.913  14.888  0.00  0.00     0.277 HD
HETATM   26  H   UNL     1       1.442   3.982  15.350  0.00  0.00     0.277 HD
HETATM   27  C   UNL     1       2.775   4.058  16.959  0.00  0.00     0.252 C 
HETATM   28  C   UNL     1       4.126   4.719  17.282  0.00  0.00     0.150 C 
ENDBRANCH  18  21
ENDBRANCH  12  15
ENDBRANCH   1  11
BRANCH   3  29
HETATM   29  O   UNL     1       7.504  12.976  20.760  0.00  0.00    -0.360 OA
HETATM   30  H   UNL     1       7.847  13.820  20.393  0.00  0.00     0.217 HD
ENDBRANCH   3  29
BRANCH  10  31
HETATM   31  C   UNL     1       2.302  14.746  24.793  0.00  0.00     0.100 C 
BRANCH  31  32
HETATM   32  C   UNL     1       1.403  14.231  23.669  0.00  0.00    -0.052 A 
HETATM   33  C   UNL     1       1.550  14.617  22.329  0.00  0.00     0.007 A 
HETATM   34  C   UNL     1       0.700  14.122  21.336  0.00  0.00     0.001 A 
HETATM   35  C   UNL     1      -0.374  13.304  21.667  0.00  0.00     0.007 A 
HETATM   36  C   UNL     1      -0.638  13.005  23.006  0.00  0.00    -0.061 A 
HETATM   37  C   UNL     1       0.276  13.433  23.992  0.00  0.00     0.014 A 
HETATM   38  C   UNL     1      -1.894  12.250  23.347  0.00  0.00     0.048 C 
ENDBRANCH  31  32
ENDBRANCH  10  31
TORSDOF 6
ENDMDL
MODEL 5
REMARK VINA RESULT:    -8.304      1.632      2.603
REMARK INTER + INTRA:         -12.222
REMARK INTER:                 -11.188
REMARK INTRA:                  -1.033
REMARK UNBOUND:                -1.248
REMARK  6 active torsions:
REMARK  status: ('A' for Active; 'I' for Inactive)
REMARK    1  A    between atoms: N_8  and  C_9 
REMARK    2  A    between atoms: C_14  and  N_15 
REMARK       I    between atoms: N_15  and  C_17 
REMARK    3  A    between atoms: C_17  and  C_19 
REMARK    4  A    between atoms: C_21  and  O_22 
REMARK    5  A    between atoms: C_29  and  C_30 
REMARK    6  A    between atoms: C_30  and  C_31 
ROOT
HETATM    1  C   UNL     1       7.151  10.559  22.198  0.00  0.00     0.066 C 
HETATM    2  C   UNL     1       6.842  11.911  22.475  0.00  0.00     0.035 C 
HETATM    3  C   UNL     1       8.340  10.031  22.751  0.00  0.00     0.083 C 
HETATM    4  C   UNL     1       9.246  10.821  23.466  0.00  0.00     0.069 C 
HETATM    5  C   UNL     1       8.969  12.187  23.540  0.00  0.00     0.065 A 
HETATM    6  C   UNL     1       7.814  12.765  23.030  0.00  0.00     0.020 A 
HETATM    7  N   UNL     1       9.668  13.226  24.097  0.00  0.00    -0.277 N 
HETATM    8  H   UNL     1      10.535  13.175  24.621  0.00  0.00     0.189 HD
HETATM    9  N   UNL     1       9.125  14.434  23.876  0.00  0.00    -0.178 NA
HETATM   10  C   UNL     1       7.990  14.178  23.200  0.00  0.00     0.071 A 
ENDROOT
BRANCH   1  11
HETATM   11  C   UNL     1       6.291   9.676  21.324  0.00  0.00     0.260 C 
HETATM   12  N   UNL     1       6.125   9.936  19.928  0.00  0.00    -0.318 N 
HETATM   13  C   UNL     1       6.864  11.022  19.270  0.00  0.00     0.159 C 
HETATM   14  O   UNL     1       5.811   8.699  21.909  0.00  0.00    -0.267 OA
BRANCH  12  15
HETATM   15  C   UNL     1       5.337   9.092  19.033  0.00  0.00     0.037 A 
HETATM   16  C   UNL     1       5.497   7.699  19.033  0.00  0.00     0.032 A 
HETATM   17  C   UNL     1       4.619   6.826  18.356  0.00  0.00     0.031 A 
HETATM   18  C   UNL     1       3.559   7.301  17.595  0.00  0.00     0.030 A 
HETATM   19  C   UNL     1       3.491   8.695  17.475  0.00  0.00     0.031 A 
HETATM   20  C   UNL     1       4.348   9.576  18.180  0.00  0.00     0.032 A 
BRANCH  18  21
HETATM   21  N   UNL     1       2.655   6.466  16.961  0.00  0.00    -0.378 N 
HETATM   22  C   UNL     1       2.049   5.290  17.609  0.00  0.00     0.150 C 
HETATM   23  C   UNL     1       2.056   4.109  16.614  0.00  0.00     0.252 C 
HETATM   24  N   UNL     1       1.424   4.502  15.295  0.00  0.00    -0.072 N 
HETATM   25  H   UNL     1       0.416   4.647  15.433  0.00  0.00     0.277 HD
HETATM   26  H   UNL     1       1.528   3.731  14.625  0.00  0.00     0.277 HD
HETATM   27  C   UNL     1       2.031   5.759  14.705  0.00  0.00     0.252 C 
HETATM   28  C   UNL     1       1.970   6.903  15.731  0.00  0.00     0.150 C 
ENDBRANCH  18  21
ENDBRANCH  12  15
ENDBRANCH   1  11
BRANCH   3  29
HETATM   29  O   UNL     1       8.700   8.708  22.629  0.00  0.00    -0.360 OA
HETATM   30  H   UNL     1       9.225   8.611  21.805  0.00  0.00     0.217 HD
ENDBRANCH   3  29
BRANCH  10  31
HETATM   31  C   UNL     1       7.134  15.340  22.754  0.00  0.00     0.100 C 
BRANCH  31  32
HETATM   32  C   UNL     1       5.742  15.307  23.384  0.00  0.00    -0.052 A 
HETATM   33  C   UNL     1       5.448  15.871  24.633  0.00  0.00     0.007 A 
HETATM   34  C   UNL     1       4.159  15.812  25.170  0.00  0.00     0.001 A 
HETATM   35  C   UNL     1       3.153  15.109  24.518  0.00  0.00     0.007 A 
HETATM   36  C   UNL     1       3.436  14.417  23.338  0.00  0.00    -0.061 A 
HETATM   37  C   UNL     1       4.714  14.557  22.757  0.00  0.00     0.014 A 
HETATM   38  C   UNL     1       2.372  13.538  22.739  0.00  0.00     0.048 C 
ENDBRANCH  31  32
ENDBRANCH  10  31
TORSDOF 6
ENDMDL
MODEL 6
REMARK VINA RESULT:    -8.302      2.557      4.769
REMARK INTER + INTRA:         -12.219
REMARK INTER:                 -11.288
REMARK INTRA:                  -0.932
REMARK UNBOUND:                -1.248
REMARK  6 active torsions:
REMARK  status: ('A' for Active; 'I' for Inactive)
REMARK    1  A    between atoms: N_8  and  C_9 
REMARK    2  A    between atoms: C_14  and  N_15 
REMARK       I    between atoms: N_15  and  C_17 
REMARK    3  A    between atoms: C_17  and  C_19 
REMARK    4  A    between atoms: C_21  and  O_22 
REMARK    5  A    between atoms: C_29  and  C_30 
REMARK    6  A    between atoms: C_30  and  C_31 
ROOT
HETATM    1  C   UNL     1       5.731  11.777  20.924  0.00  0.00     0.066 C 
HETATM    2  C   UNL     1       6.939  12.508  20.860  0.00  0.00     0.035 C 
HETATM    3  C   UNL     1       4.658  12.343  21.649  0.00  0.00     0.083 C 
HETATM    4  C   UNL     1       4.790  13.534  22.369  0.00  0.00     0.069 C 
HETATM    5  C   UNL     1       6.063  14.105  22.415  0.00  0.00     0.065 A 
HETATM    6  C   UNL     1       7.155  13.605  21.715  0.00  0.00     0.020 A 
HETATM    7  N   UNL     1       6.539  15.210  23.069  0.00  0.00    -0.277 N 
HETATM    8  H   UNL     1       6.012  15.870  23.631  0.00  0.00     0.189 HD
HETATM    9  N   UNL     1       7.866  15.388  22.954  0.00  0.00    -0.178 NA
HETATM   10  C   UNL     1       8.272  14.397  22.140  0.00  0.00     0.071 A 
ENDROOT
BRANCH   1  11
HETATM   11  C   UNL     1       5.550  10.420  20.283  0.00  0.00     0.260 C 
HETATM   12  N   UNL     1       4.871  10.265  19.034  0.00  0.00    -0.318 N 
HETATM   13  C   UNL     1       4.405  11.436  18.279  0.00  0.00     0.159 C 
HETATM   14  O   UNL     1       6.088   9.493  20.899  0.00  0.00    -0.267 OA
BRANCH  12  15
HETATM   15  C   UNL     1       4.704   8.983  18.354  0.00  0.00     0.037 A 
HETATM   16  C   UNL     1       4.077   7.905  18.997  0.00  0.00     0.032 A 
HETATM   17  C   UNL     1       3.696   6.726  18.322  0.00  0.00     0.031 A 
HETATM   18  C   UNL     1       3.968   6.535  16.974  0.00  0.00     0.030 A 
HETATM   19  C   UNL     1       4.725   7.548  16.371  0.00  0.00     0.031 A 
HETATM   20  C   UNL     1       5.080   8.749  17.033  0.00  0.00     0.032 A 
BRANCH  18  21
HETATM   21  N   UNL     1       3.563   5.410  16.277  0.00  0.00    -0.378 N 
HETATM   22  C   UNL     1       3.482   4.070  16.884  0.00  0.00     0.150 C 
HETATM   23  C   UNL     1       4.071   3.037  15.898  0.00  0.00     0.252 C 
HETATM   24  N   UNL     1       3.427   3.155  14.533  0.00  0.00    -0.072 N 
HETATM   25  H   UNL     1       2.448   2.846  14.592  0.00  0.00     0.277 HD
HETATM   26  H   UNL     1       3.902   2.523  13.877  0.00  0.00     0.277 HD
HETATM   27  C   UNL     1       3.470   4.566  13.984  0.00  0.00     0.252 C 
HETATM   28  C   UNL     1       2.845   5.542  14.996  0.00  0.00     0.150 C 
ENDBRANCH  18  21
ENDBRANCH  12  15
ENDBRANCH   1  11
BRANCH   3  29
HETATM   29  O   UNL     1       3.407  11.771  21.706  0.00  0.00    -0.360 OA
HETATM   30  H   UNL     1       3.304  11.188  20.923  0.00  0.00     0.217 HD
ENDBRANCH   3  29
BRANCH  10  31
HETATM   31  C   UNL     1       9.744  14.279  21.820  0.00  0.00     0.100 C 
BRANCH  31  32
HETATM   32  C   UNL     1      10.564  13.831  23.029  0.00  0.00    -0.052 A 
HETATM   33  C   UNL     1      10.195  12.759  23.854  0.00  0.00     0.007 A 
HETATM   34  C   UNL     1      10.976  12.389  24.953  0.00  0.00     0.001 A 
HETATM   35  C   UNL     1      12.093  13.136  25.310  0.00  0.00     0.007 A 
HETATM   36  C   UNL     1      12.419  14.291  24.597  0.00  0.00    -0.061 A 
HETATM   37  C   UNL     1      11.679  14.606  23.437  0.00  0.00     0.014 A 
HETATM   38  C   UNL     1      13.536  15.164  25.100  0.00  0.00     0.048 C 
ENDBRANCH  31  32
ENDBRANCH  10  31
TORSDOF 6
ENDMDL
MODEL 7
REMARK VINA RESULT:    -8.222      5.846      7.847
REMARK INTER + INTRA:         -12.114
REMARK INTER:                 -10.866
REMARK INTRA:                  -1.248
REMARK UNBOUND:                -1.248
REMARK  6 active torsions:
REMARK  status: ('A' for Active; 'I' for Inactive)
REMARK    1  A    between atoms: N_8  and  C_9 
REMARK    2  A    between atoms: C_14  and  N_15 
REMARK       I    between atoms: N_15  and  C_17 
REMARK    3  A    between atoms: C_17  and  C_19 
REMARK    4  A    between atoms: C_21  and  O_22 
REMARK    5  A    between atoms: C_29  and  C_30 
REMARK    6  A    between atoms: C_30  and  C_31 
ROOT
HETATM    1  C   UNL     1       5.456   8.889  22.681  0.00  0.00     0.066 C 
HETATM    2  C   UNL     1       6.418   9.922  22.615  0.00  0.00     0.035 C 
HETATM    3  C   UNL     1       5.008   8.330  21.463  0.00  0.00     0.083 C 
HETATM    4  C   UNL     1       5.410   8.828  20.220  0.00  0.00     0.069 C 
HETATM    5  C   UNL     1       6.215   9.969  20.229  0.00  0.00     0.065 A 
HETATM    6  C   UNL     1       6.699  10.558  21.391  0.00  0.00     0.020 A 
HETATM    7  N   UNL     1       6.719  10.731  19.210  0.00  0.00    -0.277 N 
HETATM    8  H   UNL     1       6.630  10.567  18.213  0.00  0.00     0.189 HD
HETATM    9  N   UNL     1       7.376  11.830  19.618  0.00  0.00    -0.178 NA
HETATM   10  C   UNL     1       7.358  11.756  20.961  0.00  0.00     0.071 A 
ENDROOT
BRANCH   1  11
HETATM   11  C   UNL     1       4.872   8.384  23.981  0.00  0.00     0.260 C 
HETATM   12  N   UNL     1       3.809   9.075  24.644  0.00  0.00    -0.318 N 
HETATM   13  C   UNL     1       3.181  10.254  24.035  0.00  0.00     0.159 C 
HETATM   14  O   UNL     1       5.348   7.311  24.367  0.00  0.00    -0.267 OA
BRANCH  12  15
HETATM   15  C   UNL     1       3.185   8.609  25.879  0.00  0.00     0.037 A 
HETATM   16  C   UNL     1       1.859   8.152  25.887  0.00  0.00     0.032 A 
HETATM   17  C   UNL     1       1.281   7.493  26.992  0.00  0.00     0.031 A 
HETATM   18  C   UNL     1       1.981   7.298  28.176  0.00  0.00     0.030 A 
HETATM   19  C   UNL     1       3.252   7.887  28.218  0.00  0.00     0.031 A 
HETATM   20  C   UNL     1       3.851   8.519  27.100  0.00  0.00     0.032 A 
BRANCH  18  21
HETATM   21  N   UNL     1       1.455   6.613  29.257  0.00  0.00    -0.378 N 
HETATM   22  C   UNL     1       0.975   7.279  30.480  0.00  0.00     0.150 C 
HETATM   23  C   UNL     1       1.472   6.488  31.710  0.00  0.00     0.252 C 
HETATM   24  N   UNL     1       1.107   5.023  31.602  0.00  0.00    -0.072 N 
HETATM   25  H   UNL     1       0.088   4.920  31.690  0.00  0.00     0.277 HD
HETATM   26  H   UNL     1       1.529   4.508  32.383  0.00  0.00     0.277 HD
HETATM   27  C   UNL     1       1.557   4.401  30.295  0.00  0.00     0.252 C 
HETATM   28  C   UNL     1       1.008   5.215  29.110  0.00  0.00     0.150 C 
ENDBRANCH  18  21
ENDBRANCH  12  15
ENDBRANCH   1  11
BRANCH   3  29
HETATM   29  O   UNL     1       4.144   7.259  21.402  0.00  0.00    -0.360 OA
HETATM   30  H   UNL     1       3.760   7.230  20.499  0.00  0.00     0.217 HD
ENDBRANCH   3  29
BRANCH  10  31
HETATM   31  C   UNL     1       7.993  12.873  21.757  0.00  0.00     0.100 C 
BRANCH  31  32
HETATM   32  C   UNL     1       6.957  13.849  22.311  0.00  0.00    -0.052 A 
HETATM   33  C   UNL     1       7.294  15.056  22.939  0.00  0.00     0.007 A 
HETATM   34  C   UNL     1       6.310  15.916  23.434  0.00  0.00     0.001 A 
HETATM   35  C   UNL     1       4.969  15.549  23.400  0.00  0.00     0.007 A 
HETATM   36  C   UNL     1       4.599  14.296  22.906  0.00  0.00    -0.061 A 
HETATM   37  C   UNL     1       5.589  13.474  22.326  0.00  0.00     0.014 A 
HETATM   38  C   UNL     1       3.163  13.864  23.026  0.00  0.00     0.048 C 
ENDBRANCH  31  32
ENDBRANCH  10  31
TORSDOF 6
ENDMDL
MODEL 8
REMARK VINA RESULT:    -8.184      2.580      4.733
REMARK INTER + INTRA:         -12.063
REMARK INTER:                 -10.618
REMARK INTRA:                  -1.445
REMARK UNBOUND:                -1.248
REMARK  6 active torsions:
REMARK  status: ('A' for Active; 'I' for Inactive)
REMARK    1  A    between atoms: N_8  and  C_9 
REMARK    2  A    between atoms: C_14  and  N_15 
REMARK       I    between atoms: N_15  and  C_17 
REMARK    3  A    between atoms: C_17  and  C_19 
REMARK    4  A    between atoms: C_21  and  O_22 
REMARK    5  A    between atoms: C_29  and  C_30 
REMARK    6  A    between atoms: C_30  and  C_31 
ROOT
HETATM    1  C   UNL     1       5.289  12.239  21.136  0.00  0.00     0.066 C 
HETATM    2  C   UNL     1       6.540  12.892  21.228  0.00  0.00     0.035 C 
HETATM    3  C   UNL     1       4.289  12.602  22.065  0.00  0.00     0.083 C 
HETATM    4  C   UNL     1       4.531  13.497  23.112  0.00  0.00     0.069 C 
HETATM    5  C   UNL     1       5.840  13.959  23.255  0.00  0.00     0.065 A 
HETATM    6  C   UNL     1       6.865  13.651  22.368  0.00  0.00     0.020 A 
HETATM    7  N   UNL     1       6.417  14.776  24.191  0.00  0.00    -0.277 N 
HETATM    8  H   UNL     1       5.960  15.251  24.961  0.00  0.00     0.189 HD
HETATM    9  N   UNL     1       7.747  14.915  24.055  0.00  0.00    -0.178 NA
HETATM   10  C   UNL     1       8.050  14.211  22.949  0.00  0.00     0.071 A 
ENDROOT
BRANCH   1  11
HETATM   11  C   UNL     1       4.990  11.164  20.116  0.00  0.00     0.260 C 
HETATM   12  N   UNL     1       5.568   9.859  20.211  0.00  0.00    -0.318 N 
HETATM   13  C   UNL     1       6.402   9.486  21.361  0.00  0.00     0.159 C 
HETATM   14  O   UNL     1       4.171  11.498  19.253  0.00  0.00    -0.267 OA
BRANCH  12  15
HETATM   15  C   UNL     1       5.282   8.775  19.275  0.00  0.00     0.037 A 
HETATM   16  C   UNL     1       4.526   7.662  19.674  0.00  0.00     0.032 A 
HETATM   17  C   UNL     1       4.038   6.701  18.763  0.00  0.00     0.031 A 
HETATM   18  C   UNL     1       4.323   6.768  17.406  0.00  0.00     0.030 A 
HETATM   19  C   UNL     1       5.201   7.795  17.033  0.00  0.00     0.031 A 
HETATM   20  C   UNL     1       5.665   8.783  17.936  0.00  0.00     0.032 A 
BRANCH  18  21
HETATM   21  N   UNL     1       3.818   5.866  16.485  0.00  0.00    -0.378 N 
HETATM   22  C   UNL     1       3.517   6.221  15.088  0.00  0.00     0.150 C 
HETATM   23  C   UNL     1       2.159   5.598  14.694  0.00  0.00     0.252 C 
HETATM   24  N   UNL     1       2.132   4.114  14.991  0.00  0.00    -0.072 N 
HETATM   25  H   UNL     1       2.773   3.628  14.351  0.00  0.00     0.277 HD
HETATM   26  H   UNL     1       1.191   3.747  14.807  0.00  0.00     0.277 HD
HETATM   27  C   UNL     1       2.521   3.794  16.420  0.00  0.00     0.252 C 
HETATM   28  C   UNL     1       3.890   4.417  16.743  0.00  0.00     0.150 C 
ENDBRANCH  18  21
ENDBRANCH  12  15
ENDBRANCH   1  11
BRANCH   3  29
HETATM   29  O   UNL     1       3.006  12.105  22.019  0.00  0.00    -0.360 OA
HETATM   30  H   UNL     1       2.926  11.406  22.703  0.00  0.00     0.217 HD
ENDBRANCH   3  29
BRANCH  10  31
HETATM   31  C   UNL     1       9.496  14.126  22.518  0.00  0.00     0.100 C 
BRANCH  31  32
HETATM   32  C   UNL     1      10.003  12.685  22.480  0.00  0.00    -0.052 A 
HETATM   33  C   UNL     1      10.940  12.223  21.545  0.00  0.00     0.007 A 
HETATM   34  C   UNL     1      11.371  10.893  21.548  0.00  0.00     0.001 A 
HETATM   35  C   UNL     1      10.809   9.970  22.421  0.00  0.00     0.007 A 
HETATM   36  C   UNL     1       9.776  10.356  23.278  0.00  0.00    -0.061 A 
HETATM   37  C   UNL     1       9.411  11.718  23.332  0.00  0.00     0.014 A 
HETATM   38  C   UNL     1       9.081   9.303  24.098  0.00  0.00     0.048 C 
ENDBRANCH  31  32
ENDBRANCH  10  31
TORSDOF 6
ENDMDL
MODEL 9
REMARK VINA RESULT:    -8.135      2.690      4.809
REMARK INTER + INTRA:         -11.999
REMARK INTER:                 -11.194
REMARK INTRA:                  -0.805
REMARK UNBOUND:                -1.248
REMARK  6 active torsions:
REMARK  status: ('A' for Active; 'I' for Inactive)
REMARK    1  A    between atoms: N_8  and  C_9 
REMARK    2  A    between atoms: C_14  and  N_15 
REMARK       I    between atoms: N_15  and  C_17 
REMARK    3  A    between atoms: C_17  and  C_19 
REMARK    4  A    between atoms: C_21  and  O_22 
REMARK    5  A    between atoms: C_29  and  C_30 
REMARK    6  A    between atoms: C_30  and  C_31 
ROOT
HETATM    1  C   UNL     1       5.879  11.580  20.504  0.00  0.00     0.066 C 
HETATM    2  C   UNL     1       7.196  11.804  20.968  0.00  0.00     0.035 C 
HETATM    3  C   UNL     1       4.824  12.228  21.184  0.00  0.00     0.083 C 
HETATM    4  C   UNL     1       5.036  12.990  22.338  0.00  0.00     0.069 C 
HETATM    5  C   UNL     1       6.336  13.014  22.847  0.00  0.00     0.065 A 
HETATM    6  C   UNL     1       7.418  12.409  22.219  0.00  0.00     0.020 A 
HETATM    7  N   UNL     1       6.860  13.597  23.970  0.00  0.00    -0.277 N 
HETATM    8  H   UNL     1       6.378  14.183  24.643  0.00  0.00     0.189 HD
HETATM    9  N   UNL     1       8.155  13.311  24.184  0.00  0.00    -0.178 NA
HETATM   10  C   UNL     1       8.516  12.561  23.128  0.00  0.00     0.071 A 
ENDROOT
BRANCH   1  11
HETATM   11  C   UNL     1       5.554  10.665  19.345  0.00  0.00     0.260 C 
HETATM   12  N   UNL     1       5.110   9.322  19.552  0.00  0.00    -0.318 N 
HETATM   13  C   UNL     1       4.861   8.810  20.906  0.00  0.00     0.159 C 
HETATM   14  O   UNL     1       5.649  11.201  18.235  0.00  0.00    -0.267 OA
BRANCH  12  15
HETATM   15  C   UNL     1       4.746   8.411  18.469  0.00  0.00     0.037 A 
HETATM   16  C   UNL     1       5.308   7.128  18.390  0.00  0.00     0.032 A 
HETATM   17  C   UNL     1       4.836   6.138  17.503  0.00  0.00     0.031 A 
HETATM   18  C   UNL     1       3.807   6.391  16.604  0.00  0.00     0.030 A 
HETATM   19  C   UNL     1       3.351   7.716  16.582  0.00  0.00     0.031 A 
HETATM   20  C   UNL     1       3.795   8.704  17.494  0.00  0.00     0.032 A 
BRANCH  18  21
HETATM   21  N   UNL     1       3.294   5.425  15.757  0.00  0.00    -0.378 N 
HETATM   22  C   UNL     1       3.269   3.990  16.089  0.00  0.00     0.150 C 
HETATM   23  C   UNL     1       3.704   3.180  14.848  0.00  0.00     0.252 C 
HETATM   24  N   UNL     1       2.888   3.563  13.632  0.00  0.00    -0.072 N 
HETATM   25  H   UNL     1       1.920   3.240  13.757  0.00  0.00     0.277 HD
HETATM   26  H   UNL     1       3.261   3.080  12.806  0.00  0.00     0.277 HD
HETATM   27  C   UNL     1       2.884   5.057  13.374  0.00  0.00     0.252 C 
HETATM   28  C   UNL     1       2.416   5.805  14.635  0.00  0.00     0.150 C 
ENDBRANCH  18  21
ENDBRANCH  12  15
ENDBRANCH   1  11
BRANCH   3  29
HETATM   29  O   UNL     1       3.513  12.161  20.772  0.00  0.00    -0.360 OA
HETATM   30  H   UNL     1       3.458  12.549  19.871  0.00  0.00     0.217 HD
ENDBRANCH   3  29
BRANCH  10  31
HETATM   31  C   UNL     1       9.929  12.029  23.066  0.00  0.00     0.100 C 
BRANCH  31  32
HETATM   32  C   UNL     1      10.956  13.064  23.523  0.00  0.00    -0.052 A 
HETATM   33  C   UNL     1      11.374  14.139  22.726  0.00  0.00     0.007 A 
HETATM   34  C   UNL     1      12.320  15.058  23.187  0.00  0.00     0.001 A 
HETATM   35  C   UNL     1      12.941  14.877  24.417  0.00  0.00     0.007 A 
HETATM   36  C   UNL     1      12.654  13.746  25.186  0.00  0.00    -0.061 A 
HETATM   37  C   UNL     1      11.634  12.872  24.755  0.00  0.00     0.014 A 
HETATM   38  C   UNL     1      13.454  13.495  26.435  0.00  0.00     0.048 C 
ENDBRANCH  31  32
ENDBRANCH  10  31
TORSDOF 6
ENDMDL
