MODEL 1
REMARK VINA RESULT:    -9.364      0.000      0.000
REMARK INTER + INTRA:         -14.938
REMARK INTER:                 -12.636
REMARK INTRA:                  -2.302
REMARK UNBOUND:                -1.742
REMARK  8 active torsions:
REMARK  status: ('A' for Active; 'I' for Inactive)
REMARK       I    between atoms: C_2  and  N_3 
REMARK    1  A    between atoms: C_2  and  C_18 
REMARK    2  A    between atoms: N_3  and  C_4 
REMARK    3  A    between atoms: C_4  and  C_5 
REMARK    4  A    between atoms: C_7  and  C_8 
REMARK    5  A    between atoms: C_19  and  O_20 
REMARK    6  A    between atoms: C_22  and  O_23 
REMARK    7  A    between atoms: C_24  and  C_25 
REMARK    8  A    between atoms: N_26  and  C_27 
ROOT
HETATM    1  C   UNL     1       3.606   7.071  18.043  0.00  0.00     0.066 A 
HETATM    2  C   UNL     1       2.667   8.116  18.136  0.00  0.00     0.084 A 
HETATM    3  C   UNL     1       1.435   8.062  17.484  0.00  0.00     0.075 A 
HETATM    4  C   UNL     1       1.082   6.929  16.753  0.00  0.00     0.082 A 
HETATM    5  C   UNL     1       1.995   5.887  16.589  0.00  0.00     0.046 A 
HETATM    6  C   UNL     1       3.279   5.999  17.200  0.00  0.00     0.038 A 
ENDROOT
BRANCH   1   7
HETATM    7  C   UNL     1       4.872   7.208  18.846  0.00  0.00     0.256 C 
HETATM    8  O   UNL     1       5.460   8.288  18.696  0.00  0.00    -0.267 OA
HETATM    9  N   UNL     1       5.330   6.277  19.787  0.00  0.00    -0.348 N 
HETATM   10  C   UNL     1       4.692   5.024  20.173  0.00  0.00     0.153 C 
BRANCH   9  11
HETATM   11  C   UNL     1       6.426   6.709  20.696  0.00  0.00     0.164 C 
BRANCH  11  12
HETATM   12  C   UNL     1       5.929   6.799  22.131  0.00  0.00    -0.039 C 
HETATM   13  C   UNL     1       5.069   7.847  22.509  0.00  0.00     0.021 C 
HETATM   14  C   UNL     1       4.316   7.801  23.698  0.00  0.00    -0.022 C 
HETATM   15  C   UNL     1       4.529   6.696  24.543  0.00  0.00     0.012 C 
HETATM   16  C   UNL     1       5.473   5.711  24.239  0.00  0.00     0.001 C 
HETATM   17  C   UNL     1       6.173   5.762  23.038  0.00  0.00     0.009 C 
BRANCH  14  18
HETATM   18  C   UNL     1       3.291   8.820  24.008  0.00  0.00     0.009 A 
HETATM   19  C   UNL     1       2.028   8.519  24.500  0.00  0.00     0.131 A 
HETATM   20  N   UNL     1       1.086   9.428  24.839  0.00  0.00    -0.253 NA
HETATM   21  C   UNL     1       1.435  10.710  24.680  0.00  0.00     0.232 A 
HETATM   22  N   UNL     1       2.610  11.148  24.213  0.00  0.00    -0.253 NA
HETATM   23  C   UNL     1       3.503  10.185  23.885  0.00  0.00     0.131 A 
ENDBRANCH  14  18
ENDBRANCH  11  12
ENDBRANCH   9  11
ENDBRANCH   1   7
BRANCH   2  24
HETATM   24  O   UNL     1       2.872   9.247  18.888  0.00  0.00    -0.360 OA
HETATM   25  H   UNL     1       3.130   8.959  19.793  0.00  0.00     0.217 HD
ENDBRANCH   2  24
BRANCH   5  26
HETATM   26  C   UNL     1       1.599   4.544  16.078  0.00  0.00     0.172 A 
HETATM   27  N   UNL     1       1.707   3.321  16.696  0.00  0.00    -0.244 N 
HETATM   28  C   UNL     1       1.455   2.395  15.694  0.00  0.00     0.349 A 
HETATM   29  O   UNL     1       1.478   1.175  15.707  0.00  0.00    -0.245 OA
HETATM   30  N   UNL     1       1.127   3.132  14.572  0.00  0.00    -0.226 N 
HETATM   31  N   UNL     1       1.229   4.461  14.819  0.00  0.00    -0.151 NA
HETATM   32  H   UNL     1       0.944   2.743  13.658  0.00  0.00     0.194 HD
BRANCH  27  33
HETATM   33  C   UNL     1       1.941   2.875  18.027  0.00  0.00     0.051 C 
HETATM   34  C   UNL     1       0.986   2.887  19.060  0.00  0.00    -0.035 C 
HETATM   35  C   UNL     1      -0.338   3.588  19.017  0.00  0.00     0.050 C 
HETATM   36  C   UNL     1       1.225   2.098  20.211  0.00  0.00     0.009 C 
HETATM   37  C   UNL     1       2.427   1.418  20.405  0.00  0.00     0.001 C 
HETATM   38  C   UNL     1       3.423   1.516  19.450  0.00  0.00     0.002 C 
HETATM   39  C   UNL     1       3.166   2.209  18.266  0.00  0.00     0.031 C 
ENDBRANCH  27  33
ENDBRANCH   5  26
BRANCH   4  40
HETATM   40  O   UNL     1      -0.190   6.841  16.275  0.00  0.00    -0.360 OA
HETATM   41  H   UNL     1      -0.256   7.272  15.406  0.00  0.00     0.217 HD
ENDBRANCH   4  40
TORSDOF 8
ENDMDL
MODEL 2
REMARK VINA RESULT:    -9.324      3.775      7.078
REMARK INTER + INTRA:         -14.882
REMARK INTER:                 -13.218
REMARK INTRA:                  -1.664
REMARK UNBOUND:                -1.742
REMARK  8 active torsions:
REMARK  status: ('A' for Active; 'I' for Inactive)
REMARK       I    between atoms: C_2  and  N_3 
REMARK    1  A    between atoms: C_2  and  C_18 
REMARK    2  A    between atoms: N_3  and  C_4 
REMARK    3  A    between atoms: C_4  and  C_5 
REMARK    4  A    between atoms: C_7  and  C_8 
REMARK    5  A    between atoms: C_19  and  O_20 
REMARK    6  A    between atoms: C_22  and  O_23 
REMARK    7  A    between atoms: C_24  and  C_25 
REMARK    8  A    between atoms: N_26  and  C_27 
ROOT
HETATM    1  C   UNL     1       3.150   7.985  24.118  0.00  0.00     0.066 A 
HETATM    2  C   UNL     1       3.989   7.386  25.077  0.00  0.00     0.084 A 
HETATM    3  C   UNL     1       5.081   6.597  24.714  0.00  0.00     0.075 A 
HETATM    4  C   UNL     1       5.397   6.421  23.368  0.00  0.00     0.082 A 
HETATM    5  C   UNL     1       4.571   6.952  22.378  0.00  0.00     0.046 A 
HETATM    6  C   UNL     1       3.416   7.691  22.773  0.00  0.00     0.038 A 
ENDROOT
BRANCH   1   7
HETATM    7  C   UNL     1       2.046   8.873  24.626  0.00  0.00     0.256 C 
HETATM    8  O   UNL     1       2.349  10.071  24.708  0.00  0.00    -0.267 OA
HETATM    9  N   UNL     1       0.734   8.454  24.884  0.00  0.00    -0.348 N 
HETATM   10  C   UNL     1       0.186   7.114  24.715  0.00  0.00     0.153 C 
BRANCH   9  11
HETATM   11  C   UNL     1      -0.292   9.513  25.087  0.00  0.00     0.164 C 
BRANCH  11  12
HETATM   12  C   UNL     1      -0.656   9.631  26.559  0.00  0.00    -0.039 C 
HETATM   13  C   UNL     1      -0.159   8.691  27.481  0.00  0.00     0.021 C 
HETATM   14  C   UNL     1      -0.172   8.928  28.868  0.00  0.00    -0.022 C 
HETATM   15  C   UNL     1      -0.792  10.114  29.304  0.00  0.00     0.012 C 
HETATM   16  C   UNL     1      -1.402  10.996  28.407  0.00  0.00     0.001 C 
HETATM   17  C   UNL     1      -1.336  10.755  27.039  0.00  0.00     0.009 C 
BRANCH  14  18
HETATM   18  C   UNL     1       0.501   8.018  29.818  0.00  0.00     0.009 A 
HETATM   19  C   UNL     1       1.142   8.446  30.974  0.00  0.00     0.131 A 
HETATM   20  N   UNL     1       1.726   7.637  31.887  0.00  0.00    -0.253 NA
HETATM   21  C   UNL     1       1.655   6.326  31.628  0.00  0.00     0.232 A 
HETATM   22  N   UNL     1       1.078   5.771  30.556  0.00  0.00    -0.253 NA
HETATM   23  C   UNL     1       0.521   6.638  29.678  0.00  0.00     0.131 A 
ENDBRANCH  14  18
ENDBRANCH  11  12
ENDBRANCH   9  11
ENDBRANCH   1   7
BRANCH   2  24
HETATM   24  O   UNL     1       3.821   7.550  26.431  0.00  0.00    -0.360 OA
HETATM   25  H   UNL     1       3.052   8.149  26.565  0.00  0.00     0.217 HD
ENDBRANCH   2  24
BRANCH   5  26
HETATM   26  C   UNL     1       4.990   7.056  20.951  0.00  0.00     0.172 A 
HETATM   27  N   UNL     1       4.287   6.716  19.820  0.00  0.00    -0.244 N 
HETATM   28  C   UNL     1       5.224   6.751  18.797  0.00  0.00     0.349 A 
HETATM   29  O   UNL     1       5.125   6.481  17.611  0.00  0.00    -0.245 OA
HETATM   30  N   UNL     1       6.397   7.195  19.375  0.00  0.00    -0.226 N 
HETATM   31  N   UNL     1       6.244   7.371  20.710  0.00  0.00    -0.151 NA
HETATM   32  H   UNL     1       7.284   7.275  18.897  0.00  0.00     0.194 HD
BRANCH  27  33
HETATM   33  C   UNL     1       2.925   6.427  19.521  0.00  0.00     0.051 C 
HETATM   34  C   UNL     1       2.090   7.227  18.719  0.00  0.00    -0.035 C 
HETATM   35  C   UNL     1       2.395   8.619  18.257  0.00  0.00     0.050 C 
HETATM   36  C   UNL     1       0.897   6.659  18.211  0.00  0.00     0.009 C 
HETATM   37  C   UNL     1       0.466   5.385  18.582  0.00  0.00     0.001 C 
HETATM   38  C   UNL     1       1.221   4.650  19.479  0.00  0.00     0.002 C 
HETATM   39  C   UNL     1       2.447   5.155  19.914  0.00  0.00     0.031 C 
ENDBRANCH  27  33
ENDBRANCH   5  26
BRANCH   4  40
HETATM   40  O   UNL     1       6.563   5.790  23.057  0.00  0.00    -0.360 OA
HETATM   41  H   UNL     1       7.314   6.236  23.485  0.00  0.00     0.217 HD
ENDBRANCH   4  40
TORSDOF 8
ENDMDL
MODEL 3
REMARK VINA RESULT:    -9.313      4.450      9.281
REMARK INTER + INTRA:         -14.865
REMARK INTER:                 -12.860
REMARK INTRA:                  -2.005
REMARK UNBOUND:                -1.742
REMARK  8 active torsions:
REMARK  status: ('A' for Active; 'I' for Inactive)
REMARK       I    between atoms: C_2  and  N_3 
REMARK    1  A    between atoms: C_2  and  C_18 
REMARK    2  A    between atoms: N_3  and  C_4 
REMARK    3  A    between atoms: C_4  and  C_5 
REMARK    4  A    between atoms: C_7  and  C_8 
REMARK    5  A    between atoms: C_19  and  O_20 
REMARK    6  A    between atoms: C_22  and  O_23 
REMARK    7  A    between atoms: C_24  and  C_25 
REMARK    8  A    between atoms: N_26  and  C_27 
ROOT
HETATM    1  C   UNL     1       1.247   9.502  25.408  0.00  0.00     0.066 A 
HETATM    2  C   UNL     1       0.135  10.321  25.130  0.00  0.00     0.084 A 
HETATM    3  C   UNL     1      -0.961  10.396  25.990  0.00  0.00     0.075 A 
HETATM    4  C   UNL     1      -0.956   9.686  27.188  0.00  0.00     0.082 A 
HETATM    5  C   UNL     1       0.097   8.823  27.489  0.00  0.00     0.046 A 
HETATM    6  C   UNL     1       1.171   8.702  26.557  0.00  0.00     0.038 A 
ENDROOT
BRANCH   1   7
HETATM    7  C   UNL     1       2.401   9.555  24.444  0.00  0.00     0.256 C 
HETATM    8  O   UNL     1       2.741  10.700  24.113  0.00  0.00    -0.267 OA
HETATM    9  N   UNL     1       3.142   8.445  24.018  0.00  0.00    -0.348 N 
HETATM   10  C   UNL     1       2.955   7.054  24.412  0.00  0.00     0.153 C 
BRANCH   9  11
HETATM   11  C   UNL     1       4.424   8.712  23.310  0.00  0.00     0.164 C 
BRANCH  11  12
HETATM   12  C   UNL     1       4.637   7.708  22.188  0.00  0.00    -0.039 C 
HETATM   13  C   UNL     1       3.815   7.750  21.046  0.00  0.00     0.021 C 
HETATM   14  C   UNL     1       4.165   7.094  19.852  0.00  0.00    -0.022 C 
HETATM   15  C   UNL     1       5.334   6.311  19.875  0.00  0.00     0.012 C 
HETATM   16  C   UNL     1       6.093   6.160  21.040  0.00  0.00     0.001 C 
HETATM   17  C   UNL     1       5.745   6.854  22.194  0.00  0.00     0.009 C 
BRANCH  14  18
HETATM   18  C   UNL     1       3.388   7.278  18.608  0.00  0.00     0.009 A 
HETATM   19  C   UNL     1       3.345   6.345  17.580  0.00  0.00     0.131 A 
HETATM   20  N   UNL     1       2.608   6.461  16.451  0.00  0.00    -0.253 NA
HETATM   21  C   UNL     1       1.869   7.572  16.355  0.00  0.00     0.232 A 
HETATM   22  N   UNL     1       1.815   8.556  17.260  0.00  0.00    -0.253 NA
HETATM   23  C   UNL     1       2.583   8.380  18.360  0.00  0.00     0.131 A 
ENDBRANCH  14  18
ENDBRANCH  11  12
ENDBRANCH   9  11
ENDBRANCH   1   7
BRANCH   2  24
HETATM   24  O   UNL     1       0.052  11.124  24.018  0.00  0.00    -0.360 OA
HETATM   25  H   UNL     1       0.807  11.754  24.049  0.00  0.00     0.217 HD
ENDBRANCH   2  24
BRANCH   5  26
HETATM   26  C   UNL     1       0.313   8.262  28.853  0.00  0.00     0.172 A 
HETATM   27  N   UNL     1       0.674   6.985  29.213  0.00  0.00    -0.244 N 
HETATM   28  C   UNL     1       0.468   6.932  30.584  0.00  0.00     0.349 A 
HETATM   29  O   UNL     1       0.587   6.011  31.376  0.00  0.00    -0.245 OA
HETATM   30  N   UNL     1       0.085   8.205  30.958  0.00  0.00    -0.226 N 
HETATM   31  N   UNL     1      -0.017   9.017  29.877  0.00  0.00    -0.151 NA
HETATM   32  H   UNL     1      -0.192   8.475  31.891  0.00  0.00     0.194 HD
BRANCH  27  33
HETATM   33  C   UNL     1       1.214   5.856  28.535  0.00  0.00     0.051 C 
HETATM   34  C   UNL     1       0.493   5.019  27.662  0.00  0.00    -0.035 C 
HETATM   35  C   UNL     1      -0.996   5.012  27.493  0.00  0.00     0.050 C 
HETATM   36  C   UNL     1       1.214   4.171  26.788  0.00  0.00     0.009 C 
HETATM   37  C   UNL     1       2.602   4.048  26.855  0.00  0.00     0.001 C 
HETATM   38  C   UNL     1       3.301   4.770  27.805  0.00  0.00     0.002 C 
HETATM   39  C   UNL     1       2.616   5.682  28.609  0.00  0.00     0.031 C 
ENDBRANCH  27  33
ENDBRANCH   5  26
BRANCH   4  40
HETATM   40  O   UNL     1      -1.962   9.915  28.077  0.00  0.00    -0.360 OA
HETATM   41  H   UNL     1      -2.543  10.625  27.755  0.00  0.00     0.217 HD
ENDBRANCH   4  40
TORSDOF 8
ENDMDL
MODEL 4
REMARK VINA RESULT:    -9.136      2.506      4.401
REMARK INTER + INTRA:         -14.616
REMARK INTER:                 -12.613
REMARK INTRA:                  -2.004
REMARK UNBOUND:                -1.742
REMARK  8 active torsions:
REMARK  status: ('A' for Active; 'I' for Inactive)
REMARK       I    between atoms: C_2  and  N_3 
REMARK    1  A    between atoms: C_2  and  C_18 
REMARK    2  A    between atoms: N_3  and  C_4 
REMARK    3  A    between atoms: C_4  and  C_5 
REMARK    4  A    between atoms: C_7  and  C_8 
REMARK    5  A    between atoms: C_19  and  O_20 
REMARK    6  A    between atoms: C_22  and  O_23 
REMARK    7  A    between atoms: C_24  and  C_25 
REMARK    8  A    between atoms: N_26  and  C_27 
ROOT
HETATM    1  C   UNL     1       3.796   6.391  21.253  0.00  0.00     0.066 A 
HETATM    2  C   UNL     1       5.142   6.227  20.875  0.00  0.00     0.084 A 
HETATM    3  C   UNL     1       5.519   6.040  19.545  0.00  0.00     0.075 A 
HETATM    4  C   UNL     1       4.556   6.060  18.539  0.00  0.00     0.082 A 
HETATM    5  C   UNL     1       3.204   6.171  18.863  0.00  0.00     0.046 A 
HETATM    6  C   UNL     1       2.836   6.283  20.237  0.00  0.00     0.038 A 
ENDROOT
BRANCH   1   7
HETATM    7  C   UNL     1       3.515   6.656  22.708  0.00  0.00     0.256 C 
HETATM    8  O   UNL     1       3.314   5.638  23.385  0.00  0.00    -0.267 OA
HETATM    9  N   UNL     1       3.581   7.914  23.322  0.00  0.00    -0.348 N 
HETATM   10  C   UNL     1       3.928   9.184  22.697  0.00  0.00     0.153 C 
BRANCH   9  11
HETATM   11  C   UNL     1       3.570   7.947  24.809  0.00  0.00     0.164 C 
BRANCH  11  12
HETATM   12  C   UNL     1       2.157   8.153  25.332  0.00  0.00    -0.039 C 
HETATM   13  C   UNL     1       1.445   9.315  24.984  0.00  0.00     0.021 C 
HETATM   14  C   UNL     1       0.049   9.411  25.143  0.00  0.00    -0.022 C 
HETATM   15  C   UNL     1      -0.597   8.320  25.754  0.00  0.00     0.012 C 
HETATM   16  C   UNL     1       0.116   7.211  26.218  0.00  0.00     0.001 C 
HETATM   17  C   UNL     1       1.489   7.127  26.010  0.00  0.00     0.009 C 
BRANCH  14  18
HETATM   18  C   UNL     1      -0.715  10.564  24.623  0.00  0.00     0.009 A 
HETATM   19  C   UNL     1      -0.130  11.753  24.208  0.00  0.00     0.131 A 
HETATM   20  N   UNL     1      -0.795  12.808  23.684  0.00  0.00    -0.253 NA
HETATM   21  C   UNL     1      -2.119  12.656  23.563  0.00  0.00     0.232 A 
HETATM   22  N   UNL     1      -2.818  11.574  23.925  0.00  0.00    -0.253 NA
HETATM   23  C   UNL     1      -2.092  10.559  24.450  0.00  0.00     0.131 A 
ENDBRANCH  14  18
ENDBRANCH  11  12
ENDBRANCH   9  11
ENDBRANCH   1   7
BRANCH   2  24
HETATM   24  O   UNL     1       6.185   6.264  21.769  0.00  0.00    -0.360 OA
HETATM   25  H   UNL     1       6.405   5.336  22.008  0.00  0.00     0.217 HD
ENDBRANCH   2  24
BRANCH   5  26
HETATM   26  C   UNL     1       2.157   6.488  17.850  0.00  0.00     0.172 A 
HETATM   27  N   UNL     1       1.158   5.680  17.361  0.00  0.00    -0.244 N 
HETATM   28  C   UNL     1       0.653   6.364  16.265  0.00  0.00     0.349 A 
HETATM   29  O   UNL     1      -0.208   6.057  15.456  0.00  0.00    -0.245 OA
HETATM   30  N   UNL     1       1.325   7.570  16.231  0.00  0.00    -0.226 N 
HETATM   31  N   UNL     1       2.260   7.632  17.211  0.00  0.00    -0.151 NA
HETATM   32  H   UNL     1       1.219   8.271  15.511  0.00  0.00     0.194 HD
BRANCH  27  33
HETATM   33  C   UNL     1       0.569   4.445  17.756  0.00  0.00     0.051 C 
HETATM   34  C   UNL     1       1.226   3.200  17.747  0.00  0.00    -0.035 C 
HETATM   35  C   UNL     1       2.545   2.915  17.095  0.00  0.00     0.050 C 
HETATM   36  C   UNL     1       0.665   2.134  18.489  0.00  0.00     0.009 C 
HETATM   37  C   UNL     1      -0.574   2.243  19.120  0.00  0.00     0.001 C 
HETATM   38  C   UNL     1      -1.285   3.425  19.016  0.00  0.00     0.002 C 
HETATM   39  C   UNL     1      -0.703   4.517  18.370  0.00  0.00     0.031 C 
ENDBRANCH  27  33
ENDBRANCH   5  26
BRANCH   4  40
HETATM   40  O   UNL     1       4.976   6.046  17.244  0.00  0.00    -0.360 OA
HETATM   41  H   UNL     1       4.512   5.353  16.744  0.00  0.00     0.217 HD
ENDBRANCH   4  40
TORSDOF 8
ENDMDL
MODEL 5
REMARK VINA RESULT:    -9.006      1.363      2.072
REMARK INTER + INTRA:         -14.433
REMARK INTER:                 -12.432
REMARK INTRA:                  -2.001
REMARK UNBOUND:                -1.742
REMARK  8 active torsions:
REMARK  status: ('A' for Active; 'I' for Inactive)
REMARK       I    between atoms: C_2  and  N_3 
REMARK    1  A    between atoms: C_2  and  C_18 
REMARK    2  A    between atoms: N_3  and  C_4 
REMARK    3  A    between atoms: C_4  and  C_5 
REMARK    4  A    between atoms: C_7  and  C_8 
REMARK    5  A    between atoms: C_19  and  O_20 
REMARK    6  A    between atoms: C_22  and  O_23 
REMARK    7  A    between atoms: C_24  and  C_25 
REMARK    8  A    between atoms: N_26  and  C_27 
ROOT
HETATM    1  C   UNL     1       3.227   7.166  18.158  0.00  0.00     0.066 A 
HETATM    2  C   UNL     1       2.335   8.194  17.795  0.00  0.00     0.084 A 
HETATM    3  C   UNL     1       1.312   7.992  16.869  0.00  0.00     0.075 A 
HETATM    4  C   UNL     1       1.118   6.731  16.308  0.00  0.00     0.082 A 
HETATM    5  C   UNL     1       2.003   5.692  16.595  0.00  0.00     0.046 A 
HETATM    6  C   UNL     1       3.089   5.943  17.486  0.00  0.00     0.038 A 
ENDROOT
BRANCH   1   7
HETATM    7  C   UNL     1       4.247   7.480  19.219  0.00  0.00     0.256 C 
HETATM    8  O   UNL     1       5.043   8.379  18.915  0.00  0.00    -0.267 OA
HETATM    9  N   UNL     1       4.267   6.919  20.503  0.00  0.00    -0.348 N 
HETATM   10  C   UNL     1       3.331   5.950  21.058  0.00  0.00     0.153 C 
BRANCH   9  11
HETATM   11  C   UNL     1       5.153   7.561  21.512  0.00  0.00     0.164 C 
BRANCH  11  12
HETATM   12  C   UNL     1       4.400   8.633  22.284  0.00  0.00    -0.039 C 
HETATM   13  C   UNL     1       3.588   8.269  23.374  0.00  0.00     0.021 C 
HETATM   14  C   UNL     1       3.146   9.212  24.322  0.00  0.00    -0.022 C 
HETATM   15  C   UNL     1       3.476  10.558  24.080  0.00  0.00     0.012 C 
HETATM   16  C   UNL     1       4.175  10.949  22.934  0.00  0.00     0.001 C 
HETATM   17  C   UNL     1       4.634   9.990  22.037  0.00  0.00     0.009 C 
BRANCH  14  18
HETATM   18  C   UNL     1       2.438   8.803  25.553  0.00  0.00     0.009 A 
HETATM   19  C   UNL     1       2.925   7.857  26.445  0.00  0.00     0.131 A 
HETATM   20  N   UNL     1       2.325   7.495  27.602  0.00  0.00    -0.253 NA
HETATM   21  C   UNL     1       1.178   8.124  27.881  0.00  0.00     0.232 A 
HETATM   22  N   UNL     1       0.587   9.049  27.116  0.00  0.00    -0.253 NA
HETATM   23  C   UNL     1       1.236   9.358  25.968  0.00  0.00     0.131 A 
ENDBRANCH  14  18
ENDBRANCH  11  12
ENDBRANCH   9  11
ENDBRANCH   1   7
BRANCH   2  24
HETATM   24  O   UNL     1       2.381   9.456  18.338  0.00  0.00    -0.360 OA
HETATM   25  H   UNL     1       1.579   9.568  18.897  0.00  0.00     0.217 HD
ENDBRANCH   2  24
BRANCH   5  26
HETATM   26  C   UNL     1       1.702   4.268  16.273  0.00  0.00     0.172 A 
HETATM   27  N   UNL     1       1.912   3.147  17.041  0.00  0.00    -0.244 N 
HETATM   28  C   UNL     1       1.716   2.082  16.174  0.00  0.00     0.349 A 
HETATM   29  O   UNL     1       1.833   0.879  16.345  0.00  0.00    -0.245 OA
HETATM   30  N   UNL     1       1.317   2.639  14.975  0.00  0.00    -0.226 N 
HETATM   31  N   UNL     1       1.321   3.993  15.045  0.00  0.00    -0.151 NA
HETATM   32  H   UNL     1       1.149   2.122  14.124  0.00  0.00     0.194 HD
BRANCH  27  33
HETATM   33  C   UNL     1       2.200   2.899  18.413  0.00  0.00     0.051 C 
HETATM   34  C   UNL     1       1.234   2.763  19.427  0.00  0.00    -0.035 C 
HETATM   35  C   UNL     1      -0.220   3.101  19.297  0.00  0.00     0.050 C 
HETATM   36  C   UNL     1       1.619   2.169  20.653  0.00  0.00     0.009 C 
HETATM   37  C   UNL     1       2.945   1.834  20.929  0.00  0.00     0.001 C 
HETATM   38  C   UNL     1       3.919   2.093  19.982  0.00  0.00     0.002 C 
HETATM   39  C   UNL     1       3.543   2.588  18.733  0.00  0.00     0.031 C 
ENDBRANCH  27  33
ENDBRANCH   5  26
BRANCH   4  40
HETATM   40  O   UNL     1       0.011   6.530  15.543  0.00  0.00    -0.360 OA
HETATM   41  H   UNL     1       0.194   6.757  14.615  0.00  0.00     0.217 HD
ENDBRANCH   4  40
TORSDOF 8
ENDMDL
MODEL 6
REMARK VINA RESULT:    -8.953      3.136      6.206
REMARK INTER + INTRA:         -14.358
REMARK INTER:                 -13.042
REMARK INTRA:                  -1.316
REMARK UNBOUND:                -1.742
REMARK  8 active torsions:
REMARK  status: ('A' for Active; 'I' for Inactive)
REMARK       I    between atoms: C_2  and  N_3 
REMARK    1  A    between atoms: C_2  and  C_18 
REMARK    2  A    between atoms: N_3  and  C_4 
REMARK    3  A    between atoms: C_4  and  C_5 
REMARK    4  A    between atoms: C_7  and  C_8 
REMARK    5  A    between atoms: C_19  and  O_20 
REMARK    6  A    between atoms: C_22  and  O_23 
REMARK    7  A    between atoms: C_24  and  C_25 
REMARK    8  A    between atoms: N_26  and  C_27 
ROOT
HETATM    1  C   UNL     1       3.492   6.603  24.047  0.00  0.00     0.066 A 
HETATM    2  C   UNL     1       4.833   6.213  24.230  0.00  0.00     0.084 A 
HETATM    3  C   UNL     1       5.706   6.040  23.155  0.00  0.00     0.075 A 
HETATM    4  C   UNL     1       5.273   6.301  21.857  0.00  0.00     0.082 A 
HETATM    5  C   UNL     1       3.942   6.643  21.616  0.00  0.00     0.046 A 
HETATM    6  C   UNL     1       3.047   6.738  22.724  0.00  0.00     0.038 A 
ENDROOT
BRANCH   1   7
HETATM    7  C   UNL     1       2.664   6.827  25.283  0.00  0.00     0.256 C 
HETATM    8  O   UNL     1       2.310   5.789  25.859  0.00  0.00    -0.267 OA
HETATM    9  N   UNL     1       2.387   8.079  25.848  0.00  0.00    -0.348 N 
HETATM   10  C   UNL     1       2.835   9.382  25.370  0.00  0.00     0.153 C 
BRANCH   9  11
HETATM   11  C   UNL     1       1.816   8.096  27.222  0.00  0.00     0.164 C 
BRANCH  11  12
HETATM   12  C   UNL     1       0.675   9.098  27.317  0.00  0.00    -0.039 C 
HETATM   13  C   UNL     1       0.325   9.867  26.192  0.00  0.00     0.021 C 
HETATM   14  C   UNL     1      -0.905  10.546  26.106  0.00  0.00    -0.022 C 
HETATM   15  C   UNL     1      -1.738  10.498  27.240  0.00  0.00     0.012 C 
HETATM   16  C   UNL     1      -1.347   9.841  28.410  0.00  0.00     0.001 C 
HETATM   17  C   UNL     1      -0.143   9.144  28.450  0.00  0.00     0.009 C 
BRANCH  14  18
HETATM   18  C   UNL     1      -1.340  11.212  24.861  0.00  0.00     0.009 A 
HETATM   19  C   UNL     1      -0.480  11.891  24.008  0.00  0.00     0.131 A 
HETATM   20  N   UNL     1      -0.838  12.470  22.839  0.00  0.00    -0.253 NA
HETATM   21  C   UNL     1      -2.128  12.353  22.505  0.00  0.00     0.232 A 
HETATM   22  N   UNL     1      -3.069  11.735  23.228  0.00  0.00    -0.253 NA
HETATM   23  C   UNL     1      -2.646  11.186  24.391  0.00  0.00     0.131 A 
ENDBRANCH  14  18
ENDBRANCH  11  12
ENDBRANCH   9  11
ENDBRANCH   1   7
BRANCH   2  24
HETATM   24  O   UNL     1       5.393   6.001  25.467  0.00  0.00    -0.360 OA
HETATM   25  H   UNL     1       4.658   5.925  26.117  0.00  0.00     0.217 HD
ENDBRANCH   2  24
BRANCH   5  26
HETATM   26  C   UNL     1       3.480   7.210  20.317  0.00  0.00     0.172 A 
HETATM   27  N   UNL     1       2.838   6.576  19.280  0.00  0.00    -0.244 N 
HETATM   28  C   UNL     1       2.887   7.481  18.229  0.00  0.00     0.349 A 
HETATM   29  O   UNL     1       2.508   7.386  17.073  0.00  0.00    -0.245 OA
HETATM   30  N   UNL     1       3.473   8.622  18.739  0.00  0.00    -0.226 N 
HETATM   31  N   UNL     1       3.845   8.440  20.031  0.00  0.00    -0.151 NA
HETATM   32  H   UNL     1       3.700   9.447  18.202  0.00  0.00     0.194 HD
BRANCH  27  33
HETATM   33  C   UNL     1       2.159   5.336  19.114  0.00  0.00     0.051 C 
HETATM   34  C   UNL     1       2.784   4.076  19.069  0.00  0.00    -0.035 C 
HETATM   35  C   UNL     1       4.257   3.836  18.932  0.00  0.00     0.050 C 
HETATM   36  C   UNL     1       1.990   2.920  19.264  0.00  0.00     0.009 C 
HETATM   37  C   UNL     1       0.600   2.987  19.371  0.00  0.00     0.001 C 
HETATM   38  C   UNL     1      -0.028   4.216  19.280  0.00  0.00     0.002 C 
HETATM   39  C   UNL     1       0.747   5.373  19.185  0.00  0.00     0.031 C 
ENDBRANCH  27  33
ENDBRANCH   5  26
BRANCH   4  40
HETATM   40  O   UNL     1       6.194   6.287  20.855  0.00  0.00    -0.360 OA
HETATM   41  H   UNL     1       6.027   7.013  20.230  0.00  0.00     0.217 HD
ENDBRANCH   4  40
TORSDOF 8
ENDMDL
MODEL 7
REMARK VINA RESULT:    -8.935      3.352      6.952
REMARK INTER + INTRA:         -14.332
REMARK INTER:                 -12.203
REMARK INTRA:                  -2.129
REMARK UNBOUND:                -1.742
REMARK  8 active torsions:
REMARK  status: ('A' for Active; 'I' for Inactive)
REMARK       I    between atoms: C_2  and  N_3 
REMARK    1  A    between atoms: C_2  and  C_18 
REMARK    2  A    between atoms: N_3  and  C_4 
REMARK    3  A    between atoms: C_4  and  C_5 
REMARK    4  A    between atoms: C_7  and  C_8 
REMARK    5  A    between atoms: C_19  and  O_20 
REMARK    6  A    between atoms: C_22  and  O_23 
REMARK    7  A    between atoms: C_24  and  C_25 
REMARK    8  A    between atoms: N_26  and  C_27 
ROOT
HETATM    1  C   UNL     1       2.231   6.129  24.194  0.00  0.00     0.066 A 
HETATM    2  C   UNL     1       2.734   4.853  24.511  0.00  0.00     0.084 A 
HETATM    3  C   UNL     1       3.734   4.243  23.753  0.00  0.00     0.075 A 
HETATM    4  C   UNL     1       4.300   4.918  22.674  0.00  0.00     0.082 A 
HETATM    5  C   UNL     1       3.805   6.164  22.287  0.00  0.00     0.046 A 
HETATM    6  C   UNL     1       2.728   6.734  23.030  0.00  0.00     0.038 A 
ENDROOT
BRANCH   1   7
HETATM    7  C   UNL     1       1.204   6.717  25.123  0.00  0.00     0.256 C 
HETATM    8  O   UNL     1       0.031   6.470  24.813  0.00  0.00    -0.267 OA
HETATM    9  N   UNL     1       1.494   7.391  26.317  0.00  0.00    -0.348 N 
HETATM   10  C   UNL     1       2.810   7.650  26.887  0.00  0.00     0.153 C 
BRANCH   9  11
HETATM   11  C   UNL     1       0.364   7.637  27.253  0.00  0.00     0.164 C 
BRANCH  11  12
HETATM   12  C   UNL     1      -0.062   9.096  27.210  0.00  0.00    -0.039 C 
HETATM   13  C   UNL     1      -0.240   9.736  25.970  0.00  0.00     0.021 C 
HETATM   14  C   UNL     1      -0.945  10.949  25.851  0.00  0.00    -0.022 C 
HETATM   15  C   UNL     1      -1.388  11.546  27.046  0.00  0.00     0.012 C 
HETATM   16  C   UNL     1      -1.107  10.984  28.295  0.00  0.00     0.001 C 
HETATM   17  C   UNL     1      -0.445   9.764  28.378  0.00  0.00     0.009 C 
BRANCH  14  18
HETATM   18  C   UNL     1      -1.275  11.530  24.533  0.00  0.00     0.009 A 
HETATM   19  C   UNL     1      -0.339  12.120  23.694  0.00  0.00     0.131 A 
HETATM   20  N   UNL     1      -0.600  12.618  22.463  0.00  0.00    -0.253 NA
HETATM   21  C   UNL     1      -1.868  12.511  22.052  0.00  0.00     0.232 A 
HETATM   22  N   UNL     1      -2.875  11.974  22.752  0.00  0.00    -0.253 NA
HETATM   23  C   UNL     1      -2.547  11.503  23.978  0.00  0.00     0.131 A 
ENDBRANCH  14  18
ENDBRANCH  11  12
ENDBRANCH   9  11
ENDBRANCH   1   7
BRANCH   2  24
HETATM   24  O   UNL     1       2.307   4.124  25.595  0.00  0.00    -0.360 OA
HETATM   25  H   UNL     1       1.813   4.735  26.187  0.00  0.00     0.217 HD
ENDBRANCH   2  24
BRANCH   5  26
HETATM   26  C   UNL     1       4.533   7.062  21.346  0.00  0.00     0.172 A 
HETATM   27  N   UNL     1       4.399   7.171  19.982  0.00  0.00    -0.244 N 
HETATM   28  C   UNL     1       5.484   7.937  19.580  0.00  0.00     0.349 A 
HETATM   29  O   UNL     1       5.855   8.278  18.469  0.00  0.00    -0.245 OA
HETATM   30  N   UNL     1       6.137   8.304  20.740  0.00  0.00    -0.226 N 
HETATM   31  N   UNL     1       5.545   7.749  21.826  0.00  0.00    -0.151 NA
HETATM   32  H   UNL     1       7.003   8.823  20.777  0.00  0.00     0.194 HD
BRANCH  27  33
HETATM   33  C   UNL     1       3.437   6.748  19.021  0.00  0.00     0.051 C 
HETATM   34  C   UNL     1       3.312   5.435  18.531  0.00  0.00    -0.035 C 
HETATM   35  C   UNL     1       4.304   4.330  18.733  0.00  0.00     0.050 C 
HETATM   36  C   UNL     1       2.114   5.071  17.871  0.00  0.00     0.009 C 
HETATM   37  C   UNL     1       1.115   6.001  17.583  0.00  0.00     0.001 C 
HETATM   38  C   UNL     1       1.298   7.324  17.945  0.00  0.00     0.002 C 
HETATM   39  C   UNL     1       2.429   7.680  18.681  0.00  0.00     0.031 C 
ENDBRANCH  27  33
ENDBRANCH   5  26
BRANCH   4  40
HETATM   40  O   UNL     1       5.385   4.366  22.065  0.00  0.00    -0.360 OA
HETATM   41  H   UNL     1       5.134   3.549  21.600  0.00  0.00     0.217 HD
ENDBRANCH   4  40
TORSDOF 8
ENDMDL
MODEL 8
REMARK VINA RESULT:    -8.900      1.402      1.779
REMARK INTER + INTRA:         -14.284
REMARK INTER:                 -12.072
REMARK INTRA:                  -2.212
REMARK UNBOUND:                -1.742
REMARK  8 active torsions:
REMARK  status: ('A' for Active; 'I' for Inactive)
REMARK       I    between atoms: C_2  and  N_3 
REMARK    1  A    between atoms: C_2  and  C_18 
REMARK    2  A    between atoms: N_3  and  C_4 
REMARK    3  A    between atoms: C_4  and  C_5 
REMARK    4  A    between atoms: C_7  and  C_8 
REMARK    5  A    between atoms: C_19  and  O_20 
REMARK    6  A    between atoms: C_22  and  O_23 
REMARK    7  A    between atoms: C_24  and  C_25 
REMARK    8  A    between atoms: N_26  and  C_27 
ROOT
HETATM    1  C   UNL     1       4.041   6.975  19.442  0.00  0.00     0.066 A 
HETATM    2  C   UNL     1       3.657   8.318  19.620  0.00  0.00     0.084 A 
HETATM    3  C   UNL     1       2.817   8.973  18.720  0.00  0.00     0.075 A 
HETATM    4  C   UNL     1       2.292   8.283  17.629  0.00  0.00     0.082 A 
HETATM    5  C   UNL     1       2.678   6.967  17.379  0.00  0.00     0.046 A 
HETATM    6  C   UNL     1       3.600   6.342  18.271  0.00  0.00     0.038 A 
ENDROOT
BRANCH   1   7
HETATM    7  C   UNL     1       4.893   6.352  20.514  0.00  0.00     0.256 C 
HETATM    8  O   UNL     1       6.036   6.823  20.599  0.00  0.00    -0.267 OA
HETATM    9  N   UNL     1       4.447   5.403  21.443  0.00  0.00    -0.348 N 
HETATM   10  C   UNL     1       3.106   4.845  21.560  0.00  0.00     0.153 C 
BRANCH   9  11
HETATM   11  C   UNL     1       5.329   5.124  22.609  0.00  0.00     0.164 C 
BRANCH  11  12
HETATM   12  C   UNL     1       4.840   5.869  23.842  0.00  0.00    -0.039 C 
HETATM   13  C   UNL     1       4.363   7.187  23.720  0.00  0.00     0.021 C 
HETATM   14  C   UNL     1       3.597   7.798  24.729  0.00  0.00    -0.022 C 
HETATM   15  C   UNL     1       3.403   7.064  25.914  0.00  0.00     0.012 C 
HETATM   16  C   UNL     1       3.979   5.803  26.098  0.00  0.00     0.001 C 
HETATM   17  C   UNL     1       4.697   5.207  25.066  0.00  0.00     0.009 C 
BRANCH  14  18
HETATM   18  C   UNL     1       2.957   9.116  24.529  0.00  0.00     0.009 A 
HETATM   19  C   UNL     1       1.665   9.416  24.940  0.00  0.00     0.131 A 
HETATM   20  N   UNL     1       1.067  10.624  24.814  0.00  0.00    -0.253 NA
HETATM   21  C   UNL     1       1.812  11.582  24.251  0.00  0.00     0.232 A 
HETATM   22  N   UNL     1       3.064  11.437  23.802  0.00  0.00    -0.253 NA
HETATM   23  C   UNL     1       3.598  10.202  23.951  0.00  0.00     0.131 A 
ENDBRANCH  14  18
ENDBRANCH  11  12
ENDBRANCH   9  11
ENDBRANCH   1   7
BRANCH   2  24
HETATM   24  O   UNL     1       4.051   9.076  20.698  0.00  0.00    -0.360 OA
HETATM   25  H   UNL     1       5.013   8.921  20.834  0.00  0.00     0.217 HD
ENDBRANCH   2  24
BRANCH   5  26
HETATM   26  C   UNL     1       1.953   6.085  16.421  0.00  0.00     0.172 A 
HETATM   27  N   UNL     1       1.645   4.750  16.542  0.00  0.00    -0.244 N 
HETATM   28  C   UNL     1       1.222   4.368  15.277  0.00  0.00     0.349 A 
HETATM   29  O   UNL     1       0.887   3.279  14.840  0.00  0.00    -0.245 OA
HETATM   30  N   UNL     1       1.223   5.520  14.515  0.00  0.00    -0.226 N 
HETATM   31  N   UNL     1       1.687   6.574  15.230  0.00  0.00    -0.151 NA
HETATM   32  H   UNL     1       1.015   5.560  13.527  0.00  0.00     0.194 HD
BRANCH  27  33
HETATM   33  C   UNL     1       1.622   3.809  17.610  0.00  0.00     0.051 C 
HETATM   34  C   UNL     1       0.707   3.826  18.679  0.00  0.00    -0.035 C 
HETATM   35  C   UNL     1      -0.219   4.955  19.017  0.00  0.00     0.050 C 
HETATM   36  C   UNL     1       0.558   2.656  19.461  0.00  0.00     0.009 C 
HETATM   37  C   UNL     1       1.375   1.539  19.284  0.00  0.00     0.001 C 
HETATM   38  C   UNL     1       2.367   1.572  18.320  0.00  0.00     0.002 C 
HETATM   39  C   UNL     1       2.464   2.680  17.477  0.00  0.00     0.031 C 
ENDBRANCH  27  33
ENDBRANCH   5  26
BRANCH   4  40
HETATM   40  O   UNL     1       1.345   8.902  16.871  0.00  0.00    -0.360 OA
HETATM   41  H   UNL     1       1.589   9.830  16.715  0.00  0.00     0.217 HD
ENDBRANCH   4  40
TORSDOF 8
ENDMDL
MODEL 9
REMARK VINA RESULT:    -8.616      2.666      5.167
REMARK INTER + INTRA:         -13.884
REMARK INTER:                 -12.142
REMARK INTRA:                  -1.742
REMARK UNBOUND:                -1.742
REMARK  8 active torsions:
REMARK  status: ('A' for Active; 'I' for Inactive)
REMARK       I    between atoms: C_2  and  N_3 
REMARK    1  A    between atoms: C_2  and  C_18 
REMARK    2  A    between atoms: N_3  and  C_4 
REMARK    3  A    between atoms: C_4  and  C_5 
REMARK    4  A    between atoms: C_7  and  C_8 
REMARK    5  A    between atoms: C_19  and  O_20 
REMARK    6  A    between atoms: C_22  and  O_23 
REMARK    7  A    between atoms: C_24  and  C_25 
REMARK    8  A    between atoms: N_26  and  C_27 
ROOT
HETATM    1  C   UNL     1       3.488   6.842  22.652  0.00  0.00     0.066 A 
HETATM    2  C   UNL     1       3.896   8.112  22.200  0.00  0.00     0.084 A 
HETATM    3  C   UNL     1       4.568   8.286  20.990  0.00  0.00     0.075 A 
HETATM    4  C   UNL     1       4.812   7.190  20.165  0.00  0.00     0.082 A 
HETATM    5  C   UNL     1       4.472   5.905  20.586  0.00  0.00     0.046 A 
HETATM    6  C   UNL     1       3.856   5.743  21.863  0.00  0.00     0.038 A 
ENDROOT
BRANCH   1   7
HETATM    7  C   UNL     1       2.709   6.785  23.938  0.00  0.00     0.256 C 
HETATM    8  O   UNL     1       1.518   6.473  23.801  0.00  0.00    -0.267 OA
HETATM    9  N   UNL     1       3.259   6.942  25.217  0.00  0.00    -0.348 N 
HETATM   10  C   UNL     1       4.656   7.184  25.554  0.00  0.00     0.153 C 
BRANCH   9  11
HETATM   11  C   UNL     1       2.408   6.558  26.376  0.00  0.00     0.164 C 
BRANCH  11  12
HETATM   12  C   UNL     1       1.676   7.770  26.930  0.00  0.00    -0.039 C 
HETATM   13  C   UNL     1       1.059   8.678  26.048  0.00  0.00     0.021 C 
HETATM   14  C   UNL     1       0.099   9.608  26.488  0.00  0.00    -0.022 C 
HETATM   15  C   UNL     1      -0.155   9.655  27.871  0.00  0.00     0.012 C 
HETATM   16  C   UNL     1       0.543   8.845  28.773  0.00  0.00     0.001 C 
HETATM   17  C   UNL     1       1.456   7.906  28.304  0.00  0.00     0.009 C 
BRANCH  14  18
HETATM   18  C   UNL     1      -0.667  10.442  25.537  0.00  0.00     0.009 A 
HETATM   19  C   UNL     1      -0.100  11.084  24.444  0.00  0.00     0.131 A 
HETATM   20  N   UNL     1      -0.779  11.814  23.530  0.00  0.00    -0.253 NA
HETATM   21  C   UNL     1      -2.101  11.897  23.722  0.00  0.00     0.232 A 
HETATM   22  N   UNL     1      -2.781  11.338  24.729  0.00  0.00    -0.253 NA
HETATM   23  C   UNL     1      -2.040  10.629  25.612  0.00  0.00     0.131 A 
ENDBRANCH  14  18
ENDBRANCH  11  12
ENDBRANCH   9  11
ENDBRANCH   1   7
BRANCH   2  24
HETATM   24  O   UNL     1       3.645   9.273  22.891  0.00  0.00    -0.360 OA
HETATM   25  H   UNL     1       2.920   9.087  23.530  0.00  0.00     0.217 HD
ENDBRANCH   2  24
BRANCH   5  26
HETATM   26  C   UNL     1       4.434   4.738  19.658  0.00  0.00     0.172 A 
HETATM   27  N   UNL     1       3.489   4.421  18.711  0.00  0.00    -0.244 N 
HETATM   28  C   UNL     1       3.789   3.120  18.335  0.00  0.00     0.349 A 
HETATM   29  O   UNL     1       3.225   2.359  17.566  0.00  0.00    -0.245 OA
HETATM   30  N   UNL     1       4.942   2.785  19.018  0.00  0.00    -0.226 N 
HETATM   31  N   UNL     1       5.327   3.791  19.841  0.00  0.00    -0.151 NA
HETATM   32  H   UNL     1       5.384   1.877  18.997  0.00  0.00     0.194 HD
BRANCH  27  33
HETATM   33  C   UNL     1       2.422   5.114  18.073  0.00  0.00     0.051 C 
HETATM   34  C   UNL     1       1.143   5.309  18.626  0.00  0.00    -0.035 C 
HETATM   35  C   UNL     1       0.605   4.621  19.844  0.00  0.00     0.050 C 
HETATM   36  C   UNL     1       0.307   6.303  18.064  0.00  0.00     0.009 C 
HETATM   37  C   UNL     1       0.661   7.000  16.909  0.00  0.00     0.001 C 
HETATM   38  C   UNL     1       1.862   6.712  16.285  0.00  0.00     0.002 C 
HETATM   39  C   UNL     1       2.739   5.805  16.880  0.00  0.00     0.031 C 
ENDBRANCH  27  33
ENDBRANCH   5  26
BRANCH   4  40
HETATM   40  O   UNL     1       5.314   7.420  18.920  0.00  0.00    -0.360 OA
HETATM   41  H   UNL     1       6.282   7.514  18.957  0.00  0.00     0.217 HD
ENDBRANCH   4  40
TORSDOF 8
ENDMDL
