MODEL 1
REMARK VINA RESULT:    -7.357      0.000      0.000
REMARK INTER + INTRA:         -10.523
REMARK INTER:                 -10.003
REMARK INTRA:                  -0.520
REMARK UNBOUND:                -1.016
REMARK  5 active torsions:
REMARK  status: ('A' for Active; 'I' for Inactive)
REMARK    1  A    between atoms: N8_1  and  C24_2 
REMARK    2  A    between atoms: N8_1  and  C7_8 
REMARK    3  A    between atoms: C2_13  and  N1_14 
REMARK    4  A    between atoms: N1_14  and  C17_15 
REMARK    5  A    between atoms: C14_16  and  C13_19 
ROOT
ATOM      1  C17 FTA A   1      -0.345  14.141  17.536  1.00  0.00     0.142 C 
ATOM      2  C14 FTA A   1      -0.271  15.487  17.510  1.00  0.00     0.158 C 
ATOM      3  C18 FTA A   1      -1.055  16.240  16.555  1.00  0.00     0.069 C 
ATOM      4  N21 FTA A   1      -1.699  16.712  15.696  1.00  0.00    -0.197 NA
ENDROOT
BRANCH   2   5
ATOM      5  C13 FTA A   1       0.608  16.187  18.475  1.00  0.00     0.197 A 
ATOM      6  N15 FTA A   1       0.478  16.176  19.862  1.00  0.00    -0.093 NA
ATOM      7  N19 FTA A   1       1.474  16.993  20.381  1.00  0.00    -0.231 N 
ATOM      8  N20 FTA A   1       2.223  17.517  19.337  1.00  0.00    -0.017 NA
ATOM      9  H15 FTA A   1       1.631  17.182  21.382  1.00  0.00     0.200 HD
ATOM     10  N16 FTA A   1       1.694  17.009  18.155  1.00  0.00    -0.090 NA
ENDBRANCH   2   5
BRANCH   1  11
ATOM     11  N1  FTA A   1       0.793  13.424  17.464  1.00  0.00    -0.389 N 
ATOM     12  H11 FTA A   1       1.138  13.172  16.527  1.00  0.00     0.159 HD
BRANCH  11  13
ATOM     13  C2  FTA A   1       1.555  12.990  18.583  1.00  0.00     0.028 A 
ATOM     14  C4  FTA A   1       2.765  13.584  18.932  1.00  0.00     0.031 A 
ATOM     15  C6  FTA A   1       3.573  12.966  19.895  1.00  0.00     0.031 A 
ATOM     16  C7  FTA A   1       3.207  11.774  20.515  1.00  0.00     0.032 A 
ATOM     17  C5  FTA A   1       1.990  11.209  20.175  1.00  0.00     0.031 A 
ATOM     18  C3  FTA A   1       1.180  11.799  19.213  1.00  0.00     0.031 A 
BRANCH  16  19
ATOM     19  N8  FTA A   1       4.094  11.025  21.330  1.00  0.00    -0.356 N 
ATOM     20  H1  FTA A   1       5.031  11.420  21.494  1.00  0.00     0.166 HD
BRANCH  19  21
ATOM     21  C24 FTA A   1       3.795   9.770  21.941  1.00  0.00     0.032 A 
ATOM     22  C26 FTA A   1       2.878   9.666  22.961  1.00  0.00     0.029 A 
ATOM     23  C28 FTA A   1       2.761   8.460  23.625  1.00  0.00     0.002 A 
ATOM     24  C30 FTA A   1       3.509   7.347  23.281  1.00  0.00     0.000 A 
ATOM     25  C29 FTA A   1       4.398   7.427  22.242  1.00  0.00     0.002 A 
ATOM     26  C27 FTA A   1       4.521   8.648  21.570  1.00  0.00     0.029 A 
ENDBRANCH  19  21
ENDBRANCH  16  19
ENDBRANCH  11  13
ENDBRANCH   1  11
TORSDOF 5
ENDMDL
MODEL 2
REMARK VINA RESULT:    -7.274      2.638      3.826
REMARK INTER + INTRA:         -10.416
REMARK INTER:                  -9.482
REMARK INTRA:                  -0.934
REMARK UNBOUND:                -1.016
REMARK  5 active torsions:
REMARK  status: ('A' for Active; 'I' for Inactive)
REMARK    1  A    between atoms: N8_1  and  C24_2 
REMARK    2  A    between atoms: N8_1  and  C7_8 
REMARK    3  A    between atoms: C2_13  and  N1_14 
REMARK    4  A    between atoms: N1_14  and  C17_15 
REMARK    5  A    between atoms: C14_16  and  C13_19 
ROOT
ATOM      1  C17 FTA A   1       3.588  15.571  18.217  1.00  0.00     0.142 C 
ATOM      2  C14 FTA A   1       4.840  16.071  18.228  1.00  0.00     0.158 C 
ATOM      3  C18 FTA A   1       5.782  15.697  17.196  1.00  0.00     0.069 C 
ATOM      4  N21 FTA A   1       6.451  15.263  16.336  1.00  0.00    -0.197 NA
ENDROOT
BRANCH   2   5
ATOM      5  C13 FTA A   1       5.235  17.019  19.295  1.00  0.00     0.197 A 
ATOM      6  N15 FTA A   1       4.371  17.755  20.104  1.00  0.00    -0.093 NA
ATOM      7  N19 FTA A   1       5.151  18.548  20.935  1.00  0.00    -0.231 N 
ATOM      8  N20 FTA A   1       6.490  18.321  20.656  1.00  0.00    -0.017 NA
ATOM      9  H15 FTA A   1       4.791  19.202  21.645  1.00  0.00     0.200 HD
ATOM     10  N16 FTA A   1       6.545  17.365  19.647  1.00  0.00    -0.090 NA
ENDBRANCH   2   5
BRANCH   1  11
ATOM     11  N1  FTA A   1       3.117  14.969  19.326  1.00  0.00    -0.389 N 
ATOM     12  H11 FTA A   1       2.991  15.553  20.166  1.00  0.00     0.159 HD
BRANCH  11  13
ATOM     13  C2  FTA A   1       2.781  13.592  19.427  1.00  0.00     0.028 A 
ATOM     14  C4  FTA A   1       1.551  13.096  19.000  1.00  0.00     0.031 A 
ATOM     15  C6  FTA A   1       1.194  11.784  19.335  1.00  0.00     0.031 A 
ATOM     16  C7  FTA A   1       2.028  10.958  20.085  1.00  0.00     0.032 A 
ATOM     17  C5  FTA A   1       3.256  11.457  20.480  1.00  0.00     0.031 A 
ATOM     18  C3  FTA A   1       3.624  12.760  20.169  1.00  0.00     0.031 A 
BRANCH  16  19
ATOM     19  N8  FTA A   1       1.605   9.711  20.611  1.00  0.00    -0.356 N 
ATOM     20  H1  FTA A   1       0.694   9.348  20.294  1.00  0.00     0.166 HD
BRANCH  19  21
ATOM     21  C24 FTA A   1       2.337   8.916  21.545  1.00  0.00     0.032 A 
ATOM     22  C26 FTA A   1       3.199   7.929  21.130  1.00  0.00     0.029 A 
ATOM     23  C28 FTA A   1       3.743   7.084  22.079  1.00  0.00     0.002 A 
ATOM     24  C30 FTA A   1       3.477   7.215  23.431  1.00  0.00     0.000 A 
ATOM     25  C29 FTA A   1       2.650   8.219  23.860  1.00  0.00     0.002 A 
ATOM     26  C27 FTA A   1       2.094   9.074  22.902  1.00  0.00     0.029 A 
ENDBRANCH  19  21
ENDBRANCH  16  19
ENDBRANCH  11  13
ENDBRANCH   1  11
TORSDOF 5
ENDMDL
MODEL 3
REMARK VINA RESULT:    -7.201      1.851      2.954
REMARK INTER + INTRA:         -10.321
REMARK INTER:                  -9.467
REMARK INTRA:                  -0.854
REMARK UNBOUND:                -1.016
REMARK  5 active torsions:
REMARK  status: ('A' for Active; 'I' for Inactive)
REMARK    1  A    between atoms: N8_1  and  C24_2 
REMARK    2  A    between atoms: N8_1  and  C7_8 
REMARK    3  A    between atoms: C2_13  and  N1_14 
REMARK    4  A    between atoms: N1_14  and  C17_15 
REMARK    5  A    between atoms: C14_16  and  C13_19 
ROOT
ATOM      1  C17 FTA A   1       0.447  13.661  16.530  1.00  0.00     0.142 C 
ATOM      2  C14 FTA A   1      -0.190  14.650  15.871  1.00  0.00     0.158 C 
ATOM      3  C18 FTA A   1       0.425  15.267  14.716  1.00  0.00     0.069 C 
ATOM      4  N21 FTA A   1       1.065  15.711  13.839  1.00  0.00    -0.197 NA
ENDROOT
BRANCH   2   5
ATOM      5  C13 FTA A   1      -1.529  15.086  16.329  1.00  0.00     0.197 A 
ATOM      6  N15 FTA A   1      -1.852  15.544  17.604  1.00  0.00    -0.093 NA
ATOM      7  N19 FTA A   1      -3.217  15.802  17.622  1.00  0.00    -0.231 N 
ATOM      8  N20 FTA A   1      -3.752  15.508  16.376  1.00  0.00    -0.017 NA
ATOM      9  H15 FTA A   1      -3.748  16.155  18.431  1.00  0.00     0.200 HD
ATOM     10  N16 FTA A   1      -2.704  15.074  15.569  1.00  0.00    -0.090 NA
ENDBRANCH   2   5
BRANCH   1  11
ATOM     11  N1  FTA A   1       0.619  13.772  17.861  1.00  0.00    -0.389 N 
ATOM     12  H11 FTA A   1       0.059  14.481  18.356  1.00  0.00     0.159 HD
BRANCH  11  13
ATOM     13  C2  FTA A   1       1.514  12.984  18.636  1.00  0.00     0.028 A 
ATOM     14  C4  FTA A   1       1.127  11.779  19.218  1.00  0.00     0.031 A 
ATOM     15  C6  FTA A   1       1.977  11.172  20.152  1.00  0.00     0.031 A 
ATOM     16  C7  FTA A   1       3.196  11.736  20.519  1.00  0.00     0.032 A 
ATOM     17  C5  FTA A   1       3.577  12.920  19.913  1.00  0.00     0.031 A 
ATOM     18  C3  FTA A   1       2.743  13.544  18.995  1.00  0.00     0.031 A 
BRANCH  16  19
ATOM     19  N8  FTA A   1       3.970  11.254  21.606  1.00  0.00    -0.356 N 
ATOM     20  H1  FTA A   1       4.622  11.916  22.052  1.00  0.00     0.166 HD
BRANCH  19  21
ATOM     21  C24 FTA A   1       3.920   9.929  22.134  1.00  0.00     0.032 A 
ATOM     22  C26 FTA A   1       4.711   8.923  21.630  1.00  0.00     0.029 A 
ATOM     23  C28 FTA A   1       4.492   7.629  22.064  1.00  0.00     0.002 A 
ATOM     24  C30 FTA A   1       3.530   7.315  23.009  1.00  0.00     0.000 A 
ATOM     25  C29 FTA A   1       2.762   8.313  23.546  1.00  0.00     0.002 A 
ATOM     26  C27 FTA A   1       2.979   9.624  23.106  1.00  0.00     0.029 A 
ENDBRANCH  19  21
ENDBRANCH  16  19
ENDBRANCH  11  13
ENDBRANCH   1  11
TORSDOF 5
ENDMDL
MODEL 4
REMARK VINA RESULT:    -7.129      1.503      2.606
REMARK INTER + INTRA:         -10.228
REMARK INTER:                  -9.393
REMARK INTRA:                  -0.835
REMARK UNBOUND:                -1.016
REMARK  5 active torsions:
REMARK  status: ('A' for Active; 'I' for Inactive)
REMARK    1  A    between atoms: N8_1  and  C24_2 
REMARK    2  A    between atoms: N8_1  and  C7_8 
REMARK    3  A    between atoms: C2_13  and  N1_14 
REMARK    4  A    between atoms: N1_14  and  C17_15 
REMARK    5  A    between atoms: C14_16  and  C13_19 
ROOT
ATOM      1  C17 FTA A   1       0.828  14.025  16.674  1.00  0.00     0.142 C 
ATOM      2  C14 FTA A   1       0.441  15.316  16.688  1.00  0.00     0.158 C 
ATOM      3  C18 FTA A   1       1.413  16.370  16.492  1.00  0.00     0.069 C 
ATOM      4  N21 FTA A   1       2.313  17.113  16.378  1.00  0.00    -0.197 NA
ENDROOT
BRANCH   2   5
ATOM      5  C13 FTA A   1      -0.989  15.645  16.890  1.00  0.00     0.197 A 
ATOM      6  N15 FTA A   1      -1.580  16.893  16.702  1.00  0.00    -0.093 NA
ATOM      7  N19 FTA A   1      -2.921  16.776  17.045  1.00  0.00    -0.231 N 
ATOM      8  N20 FTA A   1      -3.176  15.473  17.447  1.00  0.00    -0.017 NA
ATOM      9  H15 FTA A   1      -3.616  17.536  17.007  1.00  0.00     0.200 HD
ATOM     10  N16 FTA A   1      -1.981  14.768  17.342  1.00  0.00    -0.090 NA
ENDBRANCH   2   5
BRANCH   1  11
ATOM     11  N1  FTA A   1       0.492  13.233  17.710  1.00  0.00    -0.389 N 
ATOM     12  H11 FTA A   1      -0.473  12.873  17.741  1.00  0.00     0.159 HD
BRANCH  11  13
ATOM     13  C2  FTA A   1       1.368  12.856  18.765  1.00  0.00     0.028 A 
ATOM     14  C4  FTA A   1       2.539  13.556  19.041  1.00  0.00     0.031 A 
ATOM     15  C6  FTA A   1       3.467  13.002  19.934  1.00  0.00     0.031 A 
ATOM     16  C7  FTA A   1       3.257  11.772  20.553  1.00  0.00     0.032 A 
ATOM     17  C5  FTA A   1       2.076  11.102  20.287  1.00  0.00     0.031 A 
ATOM     18  C3  FTA A   1       1.150  11.627  19.394  1.00  0.00     0.031 A 
BRANCH  16  19
ATOM     19  N8  FTA A   1       4.264  11.099  21.289  1.00  0.00    -0.356 N 
ATOM     20  H1  FTA A   1       5.185  11.556  21.357  1.00  0.00     0.166 HD
BRANCH  19  21
ATOM     21  C24 FTA A   1       4.107   9.841  21.946  1.00  0.00     0.032 A 
ATOM     22  C26 FTA A   1       4.693   8.696  21.459  1.00  0.00     0.029 A 
ATOM     23  C28 FTA A   1       4.363   7.486  22.038  1.00  0.00     0.002 A 
ATOM     24  C30 FTA A   1       3.490   7.387  23.108  1.00  0.00     0.000 A 
ATOM     25  C29 FTA A   1       2.929   8.524  23.626  1.00  0.00     0.002 A 
ATOM     26  C27 FTA A   1       3.259   9.751  23.040  1.00  0.00     0.029 A 
ENDBRANCH  19  21
ENDBRANCH  16  19
ENDBRANCH  11  13
ENDBRANCH   1  11
TORSDOF 5
ENDMDL
MODEL 5
REMARK VINA RESULT:    -7.087      1.947      3.253
REMARK INTER + INTRA:         -10.174
REMARK INTER:                  -9.452
REMARK INTRA:                  -0.722
REMARK UNBOUND:                -1.016
REMARK  5 active torsions:
REMARK  status: ('A' for Active; 'I' for Inactive)
REMARK    1  A    between atoms: N8_1  and  C24_2 
REMARK    2  A    between atoms: N8_1  and  C7_8 
REMARK    3  A    between atoms: C2_13  and  N1_14 
REMARK    4  A    between atoms: N1_14  and  C17_15 
REMARK    5  A    between atoms: C14_16  and  C13_19 
ROOT
ATOM      1  C17 FTA A   1      -0.133  14.663  17.398  1.00  0.00     0.142 C 
ATOM      2  C14 FTA A   1      -1.070  14.825  16.443  1.00  0.00     0.158 C 
ATOM      3  C18 FTA A   1      -2.384  15.323  16.791  1.00  0.00     0.069 C 
ATOM      4  N21 FTA A   1      -3.414  15.677  17.225  1.00  0.00    -0.197 NA
ENDROOT
BRANCH   2   5
ATOM      5  C13 FTA A   1      -0.740  14.505  15.036  1.00  0.00     0.197 A 
ATOM      6  N15 FTA A   1       0.362  13.774  14.595  1.00  0.00    -0.093 NA
ATOM      7  N19 FTA A   1       0.318  13.748  13.208  1.00  0.00    -0.231 N 
ATOM      8  N20 FTA A   1      -0.794  14.454  12.774  1.00  0.00    -0.017 NA
ATOM      9  H15 FTA A   1       1.003  13.279  12.597  1.00  0.00     0.200 HD
ATOM     10  N16 FTA A   1      -1.458  14.916  13.906  1.00  0.00    -0.090 NA
ENDBRANCH   2   5
BRANCH   1  11
ATOM     11  N1  FTA A   1       0.484  13.470  17.509  1.00  0.00    -0.389 N 
ATOM     12  H11 FTA A   1       0.301  12.770  16.776  1.00  0.00     0.159 HD
BRANCH  11  13
ATOM     13  C2  FTA A   1       1.367  13.104  18.562  1.00  0.00     0.028 A 
ATOM     14  C4  FTA A   1       2.556  13.788  18.803  1.00  0.00     0.031 A 
ATOM     15  C6  FTA A   1       3.485  13.241  19.697  1.00  0.00     0.031 A 
ATOM     16  C7  FTA A   1       3.260  12.033  20.352  1.00  0.00     0.032 A 
ATOM     17  C5  FTA A   1       2.063  11.379  20.121  1.00  0.00     0.031 A 
ATOM     18  C3  FTA A   1       1.134  11.898  19.228  1.00  0.00     0.031 A 
BRANCH  16  19
ATOM     19  N8  FTA A   1       4.264  11.360  21.093  1.00  0.00    -0.356 N 
ATOM     20  H1  FTA A   1       5.206  11.778  21.101  1.00  0.00     0.166 HD
BRANCH  19  21
ATOM     21  C24 FTA A   1       4.079  10.151  21.829  1.00  0.00     0.032 A 
ATOM     22  C26 FTA A   1       4.673   8.973  21.442  1.00  0.00     0.029 A 
ATOM     23  C28 FTA A   1       4.317   7.807  22.093  1.00  0.00     0.002 A 
ATOM     24  C30 FTA A   1       3.409   7.786  23.138  1.00  0.00     0.000 A 
ATOM     25  C29 FTA A   1       2.839   8.958  23.558  1.00  0.00     0.002 A 
ATOM     26  C27 FTA A   1       3.195  10.141  22.899  1.00  0.00     0.029 A 
ENDBRANCH  19  21
ENDBRANCH  16  19
ENDBRANCH  11  13
ENDBRANCH   1  11
TORSDOF 5
ENDMDL
MODEL 6
REMARK VINA RESULT:    -7.083      1.041      1.856
REMARK INTER + INTRA:         -10.169
REMARK INTER:                  -9.413
REMARK INTRA:                  -0.756
REMARK UNBOUND:                -1.016
REMARK  5 active torsions:
REMARK  status: ('A' for Active; 'I' for Inactive)
REMARK    1  A    between atoms: N8_1  and  C24_2 
REMARK    2  A    between atoms: N8_1  and  C7_8 
REMARK    3  A    between atoms: C2_13  and  N1_14 
REMARK    4  A    between atoms: N1_14  and  C17_15 
REMARK    5  A    between atoms: C14_16  and  C13_19 
ROOT
ATOM      1  C17 FTA A   1      -0.772  13.963  18.072  1.00  0.00     0.142 C 
ATOM      2  C14 FTA A   1      -1.207  14.986  17.311  1.00  0.00     0.158 C 
ATOM      3  C18 FTA A   1      -2.500  14.913  16.664  1.00  0.00     0.069 C 
ATOM      4  N21 FTA A   1      -3.534  14.692  16.158  1.00  0.00    -0.197 NA
ENDROOT
BRANCH   2   5
ATOM      5  C13 FTA A   1      -0.360  16.191  17.156  1.00  0.00     0.197 A 
ATOM      6  N15 FTA A   1      -0.441  17.127  16.127  1.00  0.00    -0.093 NA
ATOM      7  N19 FTA A   1       0.561  18.065  16.337  1.00  0.00    -0.231 N 
ATOM      8  N20 FTA A   1       1.269  17.728  17.480  1.00  0.00    -0.017 NA
ATOM      9  H15 FTA A   1       0.748  18.883  15.738  1.00  0.00     0.200 HD
ATOM     10  N16 FTA A   1       0.693  16.571  17.996  1.00  0.00    -0.090 NA
ENDBRANCH   2   5
BRANCH   1  11
ATOM     11  N1  FTA A   1       0.440  13.433  17.819  1.00  0.00    -0.389 N 
ATOM     12  H11 FTA A   1       0.725  13.346  16.833  1.00  0.00     0.159 HD
BRANCH  11  13
ATOM     13  C2  FTA A   1       1.357  12.984  18.809  1.00  0.00     0.028 A 
ATOM     14  C4  FTA A   1       2.547  13.656  19.076  1.00  0.00     0.031 A 
ATOM     15  C6  FTA A   1       3.507  13.040  19.891  1.00  0.00     0.031 A 
ATOM     16  C7  FTA A   1       3.309  11.777  20.443  1.00  0.00     0.032 A 
ATOM     17  C5  FTA A   1       2.111  11.134  20.189  1.00  0.00     0.031 A 
ATOM     18  C3  FTA A   1       1.152  11.721  19.372  1.00  0.00     0.031 A 
BRANCH  16  19
ATOM     19  N8  FTA A   1       4.340  11.051  21.092  1.00  0.00    -0.356 N 
ATOM     20  H1  FTA A   1       5.300  11.416  21.008  1.00  0.00     0.166 HD
BRANCH  19  21
ATOM     21  C24 FTA A   1       4.158   9.857  21.853  1.00  0.00     0.032 A 
ATOM     22  C26 FTA A   1       4.839   8.701  21.553  1.00  0.00     0.029 A 
ATOM     23  C28 FTA A   1       4.492   7.538  22.214  1.00  0.00     0.002 A 
ATOM     24  C30 FTA A   1       3.506   7.501  23.186  1.00  0.00     0.000 A 
ATOM     25  C29 FTA A   1       2.847   8.654  23.520  1.00  0.00     0.002 A 
ATOM     26  C27 FTA A   1       3.194   9.833  22.850  1.00  0.00     0.029 A 
ENDBRANCH  19  21
ENDBRANCH  16  19
ENDBRANCH  11  13
ENDBRANCH   1  11
TORSDOF 5
ENDMDL
MODEL 7
REMARK VINA RESULT:    -6.970      2.228      2.844
REMARK INTER + INTRA:         -10.024
REMARK INTER:                  -9.056
REMARK INTRA:                  -0.967
REMARK UNBOUND:                -1.016
REMARK  5 active torsions:
REMARK  status: ('A' for Active; 'I' for Inactive)
REMARK    1  A    between atoms: N8_1  and  C24_2 
REMARK    2  A    between atoms: N8_1  and  C7_8 
REMARK    3  A    between atoms: C2_13  and  N1_14 
REMARK    4  A    between atoms: N1_14  and  C17_15 
REMARK    5  A    between atoms: C14_16  and  C13_19 
ROOT
ATOM      1  C17 FTA A   1       2.465  15.834  18.361  1.00  0.00     0.142 C 
ATOM      2  C14 FTA A   1       3.136  16.998  18.255  1.00  0.00     0.158 C 
ATOM      3  C18 FTA A   1       2.851  17.904  17.163  1.00  0.00     0.069 C 
ATOM      4  N21 FTA A   1       2.558  18.509  16.202  1.00  0.00    -0.197 NA
ENDROOT
BRANCH   2   5
ATOM      5  C13 FTA A   1       4.154  17.347  19.271  1.00  0.00     0.197 A 
ATOM      6  N15 FTA A   1       4.162  18.489  20.069  1.00  0.00    -0.093 NA
ATOM      7  N19 FTA A   1       5.312  18.447  20.847  1.00  0.00    -0.231 N 
ATOM      8  N20 FTA A   1       6.025  17.296  20.545  1.00  0.00    -0.017 NA
ATOM      9  H15 FTA A   1       5.591  19.158  21.539  1.00  0.00     0.200 HD
ATOM     10  N16 FTA A   1       5.303  16.607  19.576  1.00  0.00    -0.090 NA
ENDBRANCH   2   5
BRANCH   1  11
ATOM     11  N1  FTA A   1       3.163  14.688  18.477  1.00  0.00    -0.389 N 
ATOM     12  H11 FTA A   1       4.089  14.647  18.028  1.00  0.00     0.159 HD
BRANCH  11  13
ATOM     13  C2  FTA A   1       2.719  13.529  19.171  1.00  0.00     0.028 A 
ATOM     14  C4  FTA A   1       3.547  12.822  20.039  1.00  0.00     0.031 A 
ATOM     15  C6  FTA A   1       3.129  11.570  20.509  1.00  0.00     0.031 A 
ATOM     16  C7  FTA A   1       1.911  11.008  20.134  1.00  0.00     0.032 A 
ATOM     17  C5  FTA A   1       1.088  11.734  19.292  1.00  0.00     0.031 A 
ATOM     18  C3  FTA A   1       1.491  12.971  18.804  1.00  0.00     0.031 A 
BRANCH  16  19
ATOM     19  N8  FTA A   1       1.562   9.664  20.425  1.00  0.00    -0.356 N 
ATOM     20  H1  FTA A   1       0.778   9.255  19.896  1.00  0.00     0.166 HD
BRANCH  19  21
ATOM     21  C24 FTA A   1       2.206   8.833  21.391  1.00  0.00     0.032 A 
ATOM     22  C26 FTA A   1       1.941   8.950  22.734  1.00  0.00     0.029 A 
ATOM     23  C28 FTA A   1       2.721   8.240  23.628  1.00  0.00     0.002 A 
ATOM     24  C30 FTA A   1       3.736   7.393  23.218  1.00  0.00     0.000 A 
ATOM     25  C29 FTA A   1       3.985   7.239  21.880  1.00  0.00     0.002 A 
ATOM     26  C27 FTA A   1       3.200   7.959  20.973  1.00  0.00     0.029 A 
ENDBRANCH  19  21
ENDBRANCH  16  19
ENDBRANCH  11  13
ENDBRANCH   1  11
TORSDOF 5
ENDMDL
MODEL 8
REMARK VINA RESULT:    -6.691      1.852      2.684
REMARK INTER + INTRA:          -9.663
REMARK INTER:                  -9.418
REMARK INTRA:                  -0.245
REMARK UNBOUND:                -1.016
REMARK  5 active torsions:
REMARK  status: ('A' for Active; 'I' for Inactive)
REMARK    1  A    between atoms: N8_1  and  C24_2 
REMARK    2  A    between atoms: N8_1  and  C7_8 
REMARK    3  A    between atoms: C2_13  and  N1_14 
REMARK    4  A    between atoms: N1_14  and  C17_15 
REMARK    5  A    between atoms: C14_16  and  C13_19 
ROOT
ATOM      1  C17 FTA A   1      -1.391  14.852  17.644  1.00  0.00     0.142 C 
ATOM      2  C14 FTA A   1      -2.058  15.847  17.027  1.00  0.00     0.158 C 
ATOM      3  C18 FTA A   1      -3.465  15.699  16.720  1.00  0.00     0.069 C 
ATOM      4  N21 FTA A   1      -4.578  15.418  16.484  1.00  0.00    -0.197 NA
ENDROOT
BRANCH   2   5
ATOM      5  C13 FTA A   1      -1.344  17.097  16.680  1.00  0.00     0.197 A 
ATOM      6  N15 FTA A   1       0.035  17.295  16.722  1.00  0.00    -0.093 NA
ATOM      7  N19 FTA A   1       0.278  18.615  16.367  1.00  0.00    -0.231 N 
ATOM      8  N20 FTA A   1      -0.929  19.246  16.106  1.00  0.00    -0.017 NA
ATOM      9  H15 FTA A   1       1.207  19.056  16.307  1.00  0.00     0.200 HD
ATOM     10  N16 FTA A   1      -1.936  18.303  16.289  1.00  0.00    -0.090 NA
ENDBRANCH   2   5
BRANCH   1  11
ATOM     11  N1  FTA A   1      -0.252  14.391  17.092  1.00  0.00    -0.389 N 
ATOM     12  H11 FTA A   1      -0.124  14.529  16.079  1.00  0.00     0.159 HD
BRANCH  11  13
ATOM     13  C2  FTA A   1       0.787  13.728  17.801  1.00  0.00     0.028 A 
ATOM     14  C4  FTA A   1       0.549  12.599  18.580  1.00  0.00     0.031 A 
ATOM     15  C6  FTA A   1       1.562  12.134  19.431  1.00  0.00     0.031 A 
ATOM     16  C7  FTA A   1       2.799  12.767  19.524  1.00  0.00     0.032 A 
ATOM     17  C5  FTA A   1       3.028  13.872  18.724  1.00  0.00     0.031 A 
ATOM     18  C3  FTA A   1       2.033  14.357  17.885  1.00  0.00     0.031 A 
BRANCH  16  19
ATOM     19  N8  FTA A   1       3.755  12.445  20.521  1.00  0.00    -0.356 N 
ATOM     20  H1  FTA A   1       4.457  13.163  20.751  1.00  0.00     0.166 HD
BRANCH  19  21
ATOM     21  C24 FTA A   1       3.824  11.208  21.231  1.00  0.00     0.032 A 
ATOM     22  C26 FTA A   1       2.753  10.349  21.287  1.00  0.00     0.029 A 
ATOM     23  C28 FTA A   1       2.824   9.255  22.130  1.00  0.00     0.002 A 
ATOM     24  C30 FTA A   1       3.946   8.978  22.893  1.00  0.00     0.000 A 
ATOM     25  C29 FTA A   1       5.034   9.806  22.817  1.00  0.00     0.002 A 
ATOM     26  C27 FTA A   1       4.963  10.916  21.967  1.00  0.00     0.029 A 
ENDBRANCH  19  21
ENDBRANCH  16  19
ENDBRANCH  11  13
ENDBRANCH   1  11
TORSDOF 5
ENDMDL
MODEL 9
REMARK VINA RESULT:    -6.580      2.282      8.421
REMARK INTER + INTRA:          -9.519
REMARK INTER:                  -8.503
REMARK INTRA:                  -1.016
REMARK UNBOUND:                -1.016
REMARK  5 active torsions:
REMARK  status: ('A' for Active; 'I' for Inactive)
REMARK    1  A    between atoms: N8_1  and  C24_2 
REMARK    2  A    between atoms: N8_1  and  C7_8 
REMARK    3  A    between atoms: C2_13  and  N1_14 
REMARK    4  A    between atoms: N1_14  and  C17_15 
REMARK    5  A    between atoms: C14_16  and  C13_19 
ROOT
ATOM      1  C17 FTA A   1       3.313  11.403  21.297  1.00  0.00     0.142 C 
ATOM      2  C14 FTA A   1       3.609  10.145  21.681  1.00  0.00     0.158 C 
ATOM      3  C18 FTA A   1       4.700   9.902  22.600  1.00  0.00     0.069 C 
ATOM      4  N21 FTA A   1       5.640   9.852  23.299  1.00  0.00    -0.197 NA
ENDROOT
BRANCH   2   5
ATOM      5  C13 FTA A   1       2.799   9.017  21.166  1.00  0.00     0.197 A 
ATOM      6  N15 FTA A   1       3.139   7.667  21.222  1.00  0.00    -0.093 NA
ATOM      7  N19 FTA A   1       2.130   6.955  20.588  1.00  0.00    -0.231 N 
ATOM      8  N20 FTA A   1       1.164   7.841  20.133  1.00  0.00    -0.017 NA
ATOM      9  H15 FTA A   1       2.102   5.932  20.473  1.00  0.00     0.200 HD
ATOM     10  N16 FTA A   1       1.572   9.120  20.500  1.00  0.00    -0.090 NA
ENDBRANCH   2   5
BRANCH   1  11
ATOM     11  N1  FTA A   1       3.233  11.681  19.982  1.00  0.00    -0.389 N 
ATOM     12  H11 FTA A   1       3.859  11.164  19.347  1.00  0.00     0.159 HD
BRANCH  11  13
ATOM     13  C2  FTA A   1       2.351  12.633  19.402  1.00  0.00     0.028 A 
ATOM     14  C4  FTA A   1       2.663  13.989  19.338  1.00  0.00     0.031 A 
ATOM     15  C6  FTA A   1       1.663  14.900  18.969  1.00  0.00     0.031 A 
ATOM     16  C7  FTA A   1       0.366  14.493  18.667  1.00  0.00     0.032 A 
ATOM     17  C5  FTA A   1       0.079  13.140  18.711  1.00  0.00     0.031 A 
ATOM     18  C3  FTA A   1       1.053  12.223  19.087  1.00  0.00     0.031 A 
BRANCH  16  19
ATOM     19  N8  FTA A   1      -0.707  15.405  18.497  1.00  0.00    -0.356 N 
ATOM     20  H1  FTA A   1      -0.863  16.095  19.246  1.00  0.00     0.166 HD
BRANCH  19  21
ATOM     21  C24 FTA A   1      -1.588  15.445  17.375  1.00  0.00     0.032 A 
ATOM     22  C26 FTA A   1      -2.953  15.488  17.531  1.00  0.00     0.029 A 
ATOM     23  C28 FTA A   1      -3.752  15.351  16.412  1.00  0.00     0.002 A 
ATOM     24  C30 FTA A   1      -3.229  15.204  15.139  1.00  0.00     0.000 A 
ATOM     25  C29 FTA A   1      -1.871  15.199  14.965  1.00  0.00     0.002 A 
ATOM     26  C27 FTA A   1      -1.059  15.333  16.097  1.00  0.00     0.029 A 
ENDBRANCH  19  21
ENDBRANCH  16  19
ENDBRANCH  11  13
ENDBRANCH   1  11
TORSDOF 5
ENDMDL
