MODEL 1
REMARK VINA RESULT:    -8.092      0.000      0.000
REMARK INTER + INTRA:          -9.512
REMARK INTER:                  -9.185
REMARK INTRA:                  -0.326
REMARK UNBOUND:                -0.474
REMARK  3 active torsions:
REMARK  status: ('A' for Active; 'I' for Inactive)
REMARK    1  A    between atoms: C_8  and  N_9 
REMARK    2  A    between atoms: C_11  and  C_12 
REMARK       I    between atoms: C_12  and  N_14 
REMARK    3  A    between atoms: C_20  and  O_21 
ROOT
HETATM    1  C   UNL     1      -2.094  16.167  21.377  0.00  0.00     0.016 A 
HETATM    2  C   UNL     1      -2.472  16.691  20.140  0.00  0.00     0.001 A 
HETATM    3  C   UNL     1      -3.609  16.203  19.514  0.00  0.00     0.002 A 
HETATM    4  C   UNL     1      -4.339  15.179  20.121  0.00  0.00     0.032 A 
HETATM    5  C   UNL     1      -3.962  14.624  21.340  0.00  0.00     0.072 A 
HETATM    6  C   UNL     1      -2.843  15.133  22.003  0.00  0.00     0.027 A 
HETATM    7  N   UNL     1      -4.688  13.603  21.807  0.00  0.00    -0.218 NA
HETATM    8  C   UNL     1      -4.327  13.054  22.962  0.00  0.00     0.200 A 
HETATM    9  N   UNL     1      -3.334  13.481  23.728  0.00  0.00    -0.212 NA
HETATM   10  C   UNL     1      -2.588  14.503  23.234  0.00  0.00     0.140 A 
ENDROOT
BRANCH  10  11
HETATM   11  C   UNL     1      -1.434  14.919  24.122  0.00  0.00     0.273 C 
HETATM   12  O   UNL     1      -1.645  15.576  25.140  0.00  0.00    -0.266 OA
HETATM   13  N   UNL     1      -0.131  14.571  23.764  0.00  0.00    -0.342 N 
HETATM   14  C   UNL     1       1.017  14.956  24.580  0.00  0.00     0.139 C 
HETATM   15  C   UNL     1       0.277  13.844  22.578  0.00  0.00     0.161 C 
HETATM   16  C   UNL     1       2.117  15.182  23.545  0.00  0.00     0.057 C 
HETATM   17  C   UNL     1       1.714  14.245  22.429  0.00  0.00    -0.050 C 
HETATM   18  C   UNL     1       3.566  14.984  23.896  0.00  0.00    -0.013 C 
HETATM   19  C   UNL     1       2.563  13.833  21.477  0.00  0.00     0.041 C 
HETATM   20  C   UNL     1       3.985  14.255  21.579  0.00  0.00     0.065 C 
HETATM   21  C   UNL     1       4.455  14.601  22.959  0.00  0.00     0.033 C 
BRANCH  20  22
HETATM   22  O   UNL     1       4.743  14.280  20.535  0.00  0.00    -0.361 OA
HETATM   23  H   UNL     1       5.226  13.432  20.393  0.00  0.00     0.217 HD
ENDBRANCH  20  22
ENDBRANCH  10  11
BRANCH   8  24
HETATM   24  N   UNL     1      -5.023  11.939  23.378  0.00  0.00    -0.271 NA
HETATM   25  H   UNL     1      -5.866  11.843  22.826  0.00  0.00     0.127 HD
HETATM   26  H   UNL     1      -5.135  11.929  24.381  0.00  0.00     0.127 HD
ENDBRANCH   8  24
TORSDOF 3
ENDMDL
MODEL 2
REMARK VINA RESULT:    -7.864      3.277      4.339
REMARK INTER + INTRA:          -9.257
REMARK INTER:                  -8.781
REMARK INTRA:                  -0.476
REMARK UNBOUND:                -0.474
REMARK  3 active torsions:
REMARK  status: ('A' for Active; 'I' for Inactive)
REMARK    1  A    between atoms: C_8  and  N_9 
REMARK    2  A    between atoms: C_11  and  C_12 
REMARK       I    between atoms: C_12  and  N_14 
REMARK    3  A    between atoms: C_20  and  O_21 
ROOT
HETATM    1  C   UNL     1      -1.727  15.528  22.444  0.00  0.00     0.016 A 
HETATM    2  C   UNL     1      -0.877  16.493  21.900  0.00  0.00     0.001 A 
HETATM    3  C   UNL     1      -1.109  16.954  20.614  0.00  0.00     0.002 A 
HETATM    4  C   UNL     1      -2.172  16.427  19.877  0.00  0.00     0.032 A 
HETATM    5  C   UNL     1      -3.013  15.444  20.391  0.00  0.00     0.072 A 
HETATM    6  C   UNL     1      -2.818  14.999  21.700  0.00  0.00     0.027 A 
HETATM    7  N   UNL     1      -3.961  14.957  19.585  0.00  0.00    -0.218 NA
HETATM    8  C   UNL     1      -4.759  14.006  20.060  0.00  0.00     0.200 A 
HETATM    9  N   UNL     1      -4.732  13.541  21.301  0.00  0.00    -0.212 NA
HETATM   10  C   UNL     1      -3.751  14.026  22.105  0.00  0.00     0.140 A 
ENDROOT
BRANCH  10  11
HETATM   11  C   UNL     1      -3.730  13.427  23.495  0.00  0.00     0.273 C 
HETATM   12  O   UNL     1      -4.344  13.972  24.410  0.00  0.00    -0.266 OA
HETATM   13  N   UNL     1      -2.990  12.268  23.733  0.00  0.00    -0.342 N 
HETATM   14  C   UNL     1      -2.930  11.655  25.057  0.00  0.00     0.139 C 
HETATM   15  C   UNL     1      -2.183  11.543  22.772  0.00  0.00     0.161 C 
HETATM   16  C   UNL     1      -1.516  11.078  25.107  0.00  0.00     0.057 C 
HETATM   17  C   UNL     1      -1.229  10.790  23.651  0.00  0.00    -0.050 C 
HETATM   18  C   UNL     1      -1.198   9.875  25.950  0.00  0.00    -0.013 C 
HETATM   19  C   UNL     1      -0.265   9.950  23.248  0.00  0.00     0.041 C 
HETATM   20  C   UNL     1       0.495   9.208  24.288  0.00  0.00     0.065 C 
HETATM   21  C   UNL     1      -0.216   9.024  25.594  0.00  0.00     0.033 C 
BRANCH  20  22
HETATM   22  O   UNL     1       1.671   8.740  24.039  0.00  0.00    -0.361 OA
HETATM   23  H   UNL     1       1.683   7.757  23.960  0.00  0.00     0.217 HD
ENDBRANCH  20  22
ENDBRANCH  10  11
BRANCH   8  24
HETATM   24  N   UNL     1      -5.663  13.442  19.185  0.00  0.00    -0.271 NA
HETATM   25  H   UNL     1      -5.509  12.442  19.141  0.00  0.00     0.127 HD
HETATM   26  H   UNL     1      -5.681  13.936  18.306  0.00  0.00     0.127 HD
ENDBRANCH   8  24
TORSDOF 3
ENDMDL
MODEL 3
REMARK VINA RESULT:    -7.768      3.467      5.464
REMARK INTER + INTRA:          -9.150
REMARK INTER:                  -8.856
REMARK INTRA:                  -0.294
REMARK UNBOUND:                -0.474
REMARK  3 active torsions:
REMARK  status: ('A' for Active; 'I' for Inactive)
REMARK    1  A    between atoms: C_8  and  N_9 
REMARK    2  A    between atoms: C_11  and  C_12 
REMARK       I    between atoms: C_12  and  N_14 
REMARK    3  A    between atoms: C_20  and  O_21 
ROOT
HETATM    1  C   UNL     1      -1.363  10.911  24.575  0.00  0.00     0.016 A 
HETATM    2  C   UNL     1      -0.331  10.076  25.008  0.00  0.00     0.001 A 
HETATM    3  C   UNL     1      -0.430   9.461  26.246  0.00  0.00     0.002 A 
HETATM    4  C   UNL     1      -1.546   9.708  27.048  0.00  0.00     0.032 A 
HETATM    5  C   UNL     1      -2.571  10.559  26.646  0.00  0.00     0.072 A 
HETATM    6  C   UNL     1      -2.507  11.154  25.384  0.00  0.00     0.027 A 
HETATM    7  N   UNL     1      -3.566  10.783  27.511  0.00  0.00    -0.218 NA
HETATM    8  C   UNL     1      -4.541  11.608  27.145  0.00  0.00     0.200 A 
HETATM    9  N   UNL     1      -4.643  12.184  25.956  0.00  0.00    -0.212 NA
HETATM   10  C   UNL     1      -3.616  11.968  25.093  0.00  0.00     0.140 A 
ENDROOT
BRANCH  10  11
HETATM   11  C   UNL     1      -3.754  12.688  23.768  0.00  0.00     0.273 C 
HETATM   12  O   UNL     1      -4.558  12.287  22.928  0.00  0.00    -0.266 OA
HETATM   13  N   UNL     1      -2.946  13.794  23.500  0.00  0.00    -0.342 N 
HETATM   14  C   UNL     1      -3.033  14.518  22.234  0.00  0.00     0.139 C 
HETATM   15  C   UNL     1      -1.927  14.354  24.365  0.00  0.00     0.161 C 
HETATM   16  C   UNL     1      -1.594  14.970  21.994  0.00  0.00     0.057 C 
HETATM   17  C   UNL     1      -1.052  15.096  23.400  0.00  0.00    -0.050 C 
HETATM   18  C   UNL     1      -1.291  16.213  21.204  0.00  0.00    -0.013 C 
HETATM   19  C   UNL     1       0.044  15.807  23.701  0.00  0.00     0.041 C 
HETATM   20  C   UNL     1       0.702  16.571  22.609  0.00  0.00     0.065 C 
HETATM   21  C   UNL     1      -0.183  16.937  21.456  0.00  0.00     0.033 C 
BRANCH  20  22
HETATM   22  O   UNL     1       1.945  16.909  22.694  0.00  0.00    -0.361 OA
HETATM   23  H   UNL     1       2.455  16.337  23.315  0.00  0.00     0.217 HD
ENDBRANCH  20  22
ENDBRANCH  10  11
BRANCH   8  24
HETATM   24  N   UNL     1      -5.504  11.908  28.085  0.00  0.00    -0.271 NA
HETATM   25  H   UNL     1      -6.414  11.645  27.730  0.00  0.00     0.127 HD
HETATM   26  H   UNL     1      -5.405  12.853  28.423  0.00  0.00     0.127 HD
ENDBRANCH   8  24
TORSDOF 3
ENDMDL
MODEL 4
REMARK VINA RESULT:    -7.678      3.491      6.308
REMARK INTER + INTRA:          -9.049
REMARK INTER:                  -8.616
REMARK INTRA:                  -0.434
REMARK UNBOUND:                -0.474
REMARK  3 active torsions:
REMARK  status: ('A' for Active; 'I' for Inactive)
REMARK    1  A    between atoms: C_8  and  N_9 
REMARK    2  A    between atoms: C_11  and  C_12 
REMARK       I    between atoms: C_12  and  N_14 
REMARK    3  A    between atoms: C_20  and  O_21 
ROOT
HETATM    1  C   UNL     1      -0.222  11.680  25.091  0.00  0.00     0.016 A 
HETATM    2  C   UNL     1       0.571  10.538  25.215  0.00  0.00     0.001 A 
HETATM    3  C   UNL     1       0.069   9.432  25.885  0.00  0.00     0.002 A 
HETATM    4  C   UNL     1      -1.209   9.491  26.444  0.00  0.00     0.032 A 
HETATM    5  C   UNL     1      -2.003  10.631  26.356  0.00  0.00     0.072 A 
HETATM    6  C   UNL     1      -1.529  11.738  25.649  0.00  0.00     0.027 A 
HETATM    7  N   UNL     1      -3.185  10.612  26.981  0.00  0.00    -0.218 NA
HETATM    8  C   UNL     1      -3.944  11.701  26.918  0.00  0.00     0.200 A 
HETATM    9  N   UNL     1      -3.651  12.792  26.226  0.00  0.00    -0.212 NA
HETATM   10  C   UNL     1      -2.439  12.810  25.614  0.00  0.00     0.140 A 
ENDROOT
BRANCH  10  11
HETATM   11  C   UNL     1      -2.129  14.098  24.881  0.00  0.00     0.273 C 
HETATM   12  O   UNL     1      -1.669  15.061  25.492  0.00  0.00    -0.266 OA
HETATM   13  N   UNL     1      -2.391  14.190  23.513  0.00  0.00    -0.342 N 
HETATM   14  C   UNL     1      -2.119  15.412  22.760  0.00  0.00     0.139 C 
HETATM   15  C   UNL     1      -2.972  13.163  22.671  0.00  0.00     0.161 C 
HETATM   16  C   UNL     1      -3.231  15.427  21.713  0.00  0.00     0.057 C 
HETATM   17  C   UNL     1      -3.522  13.956  21.523  0.00  0.00    -0.050 C 
HETATM   18  C   UNL     1      -3.033  16.096  20.381  0.00  0.00    -0.013 C 
HETATM   19  C   UNL     1      -4.160  13.468  20.450  0.00  0.00     0.041 C 
HETATM   20  C   UNL     1      -4.519  14.415  19.361  0.00  0.00     0.065 C 
HETATM   21  C   UNL     1      -3.680  15.654  19.285  0.00  0.00     0.033 C 
BRANCH  20  22
HETATM   22  O   UNL     1      -5.473  14.142  18.536  0.00  0.00    -0.361 OA
HETATM   23  H   UNL     1      -5.797  14.936  18.050  0.00  0.00     0.217 HD
ENDBRANCH  20  22
ENDBRANCH  10  11
BRANCH   8  24
HETATM   24  N   UNL     1      -5.112  11.702  27.651  0.00  0.00    -0.271 NA
HETATM   25  H   UNL     1      -5.072  12.440  28.344  0.00  0.00     0.127 HD
HETATM   26  H   UNL     1      -5.336  10.778  27.987  0.00  0.00     0.127 HD
ENDBRANCH   8  24
TORSDOF 3
ENDMDL
MODEL 5
REMARK VINA RESULT:    -7.622      3.050      5.795
REMARK INTER + INTRA:          -8.987
REMARK INTER:                  -8.515
REMARK INTRA:                  -0.472
REMARK UNBOUND:                -0.474
REMARK  3 active torsions:
REMARK  status: ('A' for Active; 'I' for Inactive)
REMARK    1  A    between atoms: C_8  and  N_9 
REMARK    2  A    between atoms: C_11  and  C_12 
REMARK       I    between atoms: C_12  and  N_14 
REMARK    3  A    between atoms: C_20  and  O_21 
ROOT
HETATM    1  C   UNL     1      -2.847  14.340  20.840  0.00  0.00     0.016 A 
HETATM    2  C   UNL     1      -3.909  15.071  20.305  0.00  0.00     0.001 A 
HETATM    3  C   UNL     1      -3.695  16.378  19.894  0.00  0.00     0.002 A 
HETATM    4  C   UNL     1      -2.429  16.946  20.047  0.00  0.00     0.032 A 
HETATM    5  C   UNL     1      -1.365  16.243  20.604  0.00  0.00     0.072 A 
HETATM    6  C   UNL     1      -1.553  14.913  20.985  0.00  0.00     0.027 A 
HETATM    7  N   UNL     1      -0.210  16.895  20.769  0.00  0.00    -0.218 NA
HETATM    8  C   UNL     1       0.808  16.239  21.316  0.00  0.00     0.200 A 
HETATM    9  N   UNL     1       0.791  14.958  21.657  0.00  0.00    -0.212 NA
HETATM   10  C   UNL     1      -0.394  14.311  21.508  0.00  0.00     0.140 A 
ENDROOT
BRANCH  10  11
HETATM   11  C   UNL     1      -0.377  12.866  21.959  0.00  0.00     0.273 C 
HETATM   12  O   UNL     1       0.021  11.987  21.197  0.00  0.00    -0.266 OA
HETATM   13  N   UNL     1      -0.837  12.540  23.236  0.00  0.00    -0.342 N 
HETATM   14  C   UNL     1      -0.849  11.161  23.717  0.00  0.00     0.139 C 
HETATM   15  C   UNL     1      -1.375  13.454  24.223  0.00  0.00     0.161 C 
HETATM   16  C   UNL     1      -2.086  11.118  24.612  0.00  0.00     0.057 C 
HETATM   17  C   UNL     1      -2.187  12.546  25.098  0.00  0.00    -0.050 C 
HETATM   18  C   UNL     1      -2.172  10.165  25.772  0.00  0.00    -0.013 C 
HETATM   19  C   UNL     1      -2.891  12.902  26.182  0.00  0.00     0.041 C 
HETATM   20  C   UNL     1      -3.530  11.827  26.985  0.00  0.00     0.065 C 
HETATM   21  C   UNL     1      -2.896  10.474  26.865  0.00  0.00     0.033 C 
BRANCH  20  22
HETATM   22  O   UNL     1      -4.540  12.081  27.746  0.00  0.00    -0.361 OA
HETATM   23  H   UNL     1      -4.828  11.299  28.273  0.00  0.00     0.217 HD
ENDBRANCH  20  22
ENDBRANCH  10  11
BRANCH   8  24
HETATM   24  N   UNL     1       1.958  16.954  21.572  0.00  0.00    -0.271 NA
HETATM   25  H   UNL     1       2.765  16.375  21.374  0.00  0.00     0.127 HD
HETATM   26  H   UNL     1       1.926  17.388  22.482  0.00  0.00     0.127 HD
ENDBRANCH   8  24
TORSDOF 3
ENDMDL
MODEL 6
REMARK VINA RESULT:    -7.558      3.556      6.255
REMARK INTER + INTRA:          -8.916
REMARK INTER:                  -8.556
REMARK INTRA:                  -0.359
REMARK UNBOUND:                -0.474
REMARK  3 active torsions:
REMARK  status: ('A' for Active; 'I' for Inactive)
REMARK    1  A    between atoms: C_8  and  N_9 
REMARK    2  A    between atoms: C_11  and  C_12 
REMARK       I    between atoms: C_12  and  N_14 
REMARK    3  A    between atoms: C_20  and  O_21 
ROOT
HETATM    1  C   UNL     1      -1.931  10.205  24.138  0.00  0.00     0.016 A 
HETATM    2  C   UNL     1      -0.915   9.262  24.305  0.00  0.00     0.001 A 
HETATM    3  C   UNL     1      -0.309   9.129  25.545  0.00  0.00     0.002 A 
HETATM    4  C   UNL     1      -0.708   9.957  26.596  0.00  0.00     0.032 A 
HETATM    5  C   UNL     1      -1.698  10.923  26.442  0.00  0.00     0.072 A 
HETATM    6  C   UNL     1      -2.347  11.041  25.211  0.00  0.00     0.027 A 
HETATM    7  N   UNL     1      -1.963  11.711  27.488  0.00  0.00    -0.218 NA
HETATM    8  C   UNL     1      -2.895  12.648  27.347  0.00  0.00     0.200 A 
HETATM    9  N   UNL     1      -3.636  12.825  26.262  0.00  0.00    -0.212 NA
HETATM   10  C   UNL     1      -3.343  12.035  25.197  0.00  0.00     0.140 A 
ENDROOT
BRANCH  10  11
HETATM   11  C   UNL     1      -4.181  12.311  23.967  0.00  0.00     0.273 C 
HETATM   12  O   UNL     1      -5.103  11.555  23.667  0.00  0.00    -0.266 OA
HETATM   13  N   UNL     1      -3.884  13.414  23.166  0.00  0.00    -0.342 N 
HETATM   14  C   UNL     1      -4.655  13.720  21.964  0.00  0.00     0.139 C 
HETATM   15  C   UNL     1      -2.806  14.364  23.364  0.00  0.00     0.161 C 
HETATM   16  C   UNL     1      -3.611  14.322  21.027  0.00  0.00     0.057 C 
HETATM   17  C   UNL     1      -2.621  14.936  21.991  0.00  0.00    -0.050 C 
HETATM   18  C   UNL     1      -3.999  15.319  19.970  0.00  0.00    -0.013 C 
HETATM   19  C   UNL     1      -1.739  15.879  21.631  0.00  0.00     0.041 C 
HETATM   20  C   UNL     1      -1.800  16.400  20.240  0.00  0.00     0.065 C 
HETATM   21  C   UNL     1      -3.129  16.263  19.561  0.00  0.00     0.033 C 
BRANCH  20  22
HETATM   22  O   UNL     1      -0.770  16.954  19.696  0.00  0.00    -0.361 OA
HETATM   23  H   UNL     1      -0.993  17.780  19.207  0.00  0.00     0.217 HD
ENDBRANCH  20  22
ENDBRANCH  10  11
BRANCH   8  24
HETATM   24  N   UNL     1      -3.084  13.518  28.400  0.00  0.00    -0.271 NA
HETATM   25  H   UNL     1      -4.014  13.914  28.346  0.00  0.00     0.127 HD
HETATM   26  H   UNL     1      -2.318  14.169  28.480  0.00  0.00     0.127 HD
ENDBRANCH   8  24
TORSDOF 3
ENDMDL
MODEL 7
REMARK VINA RESULT:    -7.426      2.931      4.491
REMARK INTER + INTRA:          -8.769
REMARK INTER:                  -8.283
REMARK INTRA:                  -0.486
REMARK UNBOUND:                -0.474
REMARK  3 active torsions:
REMARK  status: ('A' for Active; 'I' for Inactive)
REMARK    1  A    between atoms: C_8  and  N_9 
REMARK    2  A    between atoms: C_11  and  C_12 
REMARK       I    between atoms: C_12  and  N_14 
REMARK    3  A    between atoms: C_20  and  O_21 
ROOT
HETATM    1  C   UNL     1      -1.296  11.590  23.479  0.00  0.00     0.016 A 
HETATM    2  C   UNL     1      -0.939  10.246  23.595  0.00  0.00     0.001 A 
HETATM    3  C   UNL     1      -0.998   9.632  24.837  0.00  0.00     0.002 A 
HETATM    4  C   UNL     1      -1.387  10.377  25.952  0.00  0.00     0.032 A 
HETATM    5  C   UNL     1      -1.719  11.726  25.861  0.00  0.00     0.072 A 
HETATM    6  C   UNL     1      -1.705  12.347  24.611  0.00  0.00     0.027 A 
HETATM    7  N   UNL     1      -2.016  12.368  26.996  0.00  0.00    -0.218 NA
HETATM    8  C   UNL     1      -2.317  13.660  26.923  0.00  0.00     0.200 A 
HETATM    9  N   UNL     1      -2.411  14.357  25.800  0.00  0.00    -0.212 NA
HETATM   10  C   UNL     1      -2.086  13.701  24.656  0.00  0.00     0.140 A 
ENDROOT
BRANCH  10  11
HETATM   11  C   UNL     1      -2.159  14.553  23.406  0.00  0.00     0.273 C 
HETATM   12  O   UNL     1      -3.220  14.660  22.794  0.00  0.00    -0.266 OA
HETATM   13  N   UNL     1      -1.009  15.195  22.944  0.00  0.00    -0.342 N 
HETATM   14  C   UNL     1      -1.024  16.020  21.739  0.00  0.00     0.139 C 
HETATM   15  C   UNL     1       0.316  15.126  23.527  0.00  0.00     0.161 C 
HETATM   16  C   UNL     1       0.366  15.793  21.147  0.00  0.00     0.057 C 
HETATM   17  C   UNL     1       1.199  15.496  22.374  0.00  0.00    -0.050 C 
HETATM   18  C   UNL     1       1.033  16.845  20.305  0.00  0.00    -0.013 C 
HETATM   19  C   UNL     1       2.536  15.592  22.390  0.00  0.00     0.041 C 
HETATM   20  C   UNL     1       3.216  16.095  21.168  0.00  0.00     0.065 C 
HETATM   21  C   UNL     1       2.375  16.953  20.272  0.00  0.00     0.033 C 
BRANCH  20  22
HETATM   22  O   UNL     1       4.456  15.819  20.940  0.00  0.00    -0.361 OA
HETATM   23  H   UNL     1       4.800  16.250  20.123  0.00  0.00     0.217 HD
ENDBRANCH  20  22
ENDBRANCH  10  11
BRANCH   8  24
HETATM   24  N   UNL     1      -2.520  14.331  28.111  0.00  0.00    -0.271 NA
HETATM   25  H   UNL     1      -2.768  15.293  27.915  0.00  0.00     0.127 HD
HETATM   26  H   UNL     1      -1.755  14.182  28.752  0.00  0.00     0.127 HD
ENDBRANCH   8  24
TORSDOF 3
ENDMDL
MODEL 8
REMARK VINA RESULT:    -7.334      3.141      4.857
REMARK INTER + INTRA:          -8.666
REMARK INTER:                  -8.192
REMARK INTRA:                  -0.474
REMARK UNBOUND:                -0.474
REMARK  3 active torsions:
REMARK  status: ('A' for Active; 'I' for Inactive)
REMARK    1  A    between atoms: C_8  and  N_9 
REMARK    2  A    between atoms: C_11  and  C_12 
REMARK       I    between atoms: C_12  and  N_14 
REMARK    3  A    between atoms: C_20  and  O_21 
ROOT
HETATM    1  C   UNL     1      -0.073  10.216  23.674  0.00  0.00     0.016 A 
HETATM    2  C   UNL     1       0.195   8.924  24.131  0.00  0.00     0.001 A 
HETATM    3  C   UNL     1      -0.250   8.542  25.387  0.00  0.00     0.002 A 
HETATM    4  C   UNL     1      -0.936   9.464  26.182  0.00  0.00     0.032 A 
HETATM    5  C   UNL     1      -1.187  10.765  25.755  0.00  0.00     0.072 A 
HETATM    6  C   UNL     1      -0.782  11.152  24.476  0.00  0.00     0.027 A 
HETATM    7  N   UNL     1      -1.792  11.592  26.614  0.00  0.00    -0.218 NA
HETATM    8  C   UNL     1      -2.023  12.841  26.223  0.00  0.00     0.200 A 
HETATM    9  N   UNL     1      -1.756  13.322  25.017  0.00  0.00    -0.212 NA
HETATM   10  C   UNL     1      -1.121  12.481  24.161  0.00  0.00     0.140 A 
ENDROOT
BRANCH  10  11
HETATM   11  C   UNL     1      -0.792  13.092  22.815  0.00  0.00     0.273 C 
HETATM   12  O   UNL     1      -1.577  12.975  21.876  0.00  0.00    -0.266 OA
HETATM   13  N   UNL     1       0.417  13.768  22.644  0.00  0.00    -0.342 N 
HETATM   14  C   UNL     1       0.786  14.368  21.365  0.00  0.00     0.139 C 
HETATM   15  C   UNL     1       1.458  13.947  23.637  0.00  0.00     0.161 C 
HETATM   16  C   UNL     1       2.304  14.197  21.328  0.00  0.00     0.057 C 
HETATM   17  C   UNL     1       2.670  14.209  22.794  0.00  0.00    -0.050 C 
HETATM   18  C   UNL     1       3.174  15.156  20.564  0.00  0.00    -0.013 C 
HETATM   19  C   UNL     1       3.912  14.453  23.237  0.00  0.00     0.041 C 
HETATM   20  C   UNL     1       4.952  14.810  22.236  0.00  0.00     0.065 C 
HETATM   21  C   UNL     1       4.438  15.404  20.960  0.00  0.00     0.033 C 
BRANCH  20  22
HETATM   22  O   UNL     1       6.204  14.638  22.494  0.00  0.00    -0.361 OA
HETATM   23  H   UNL     1       6.395  14.608  23.461  0.00  0.00     0.217 HD
ENDBRANCH  20  22
ENDBRANCH  10  11
BRANCH   8  24
HETATM   24  N   UNL     1      -2.553  13.708  27.155  0.00  0.00    -0.271 NA
HETATM   25  H   UNL     1      -3.559  13.592  27.187  0.00  0.00     0.127 HD
HETATM   26  H   UNL     1      -2.210  14.647  27.020  0.00  0.00     0.127 HD
ENDBRANCH   8  24
TORSDOF 3
ENDMDL
MODEL 9
REMARK VINA RESULT:    -7.326      4.442      5.529
REMARK INTER + INTRA:          -8.657
REMARK INTER:                  -8.196
REMARK INTRA:                  -0.460
REMARK UNBOUND:                -0.474
REMARK  3 active torsions:
REMARK  status: ('A' for Active; 'I' for Inactive)
REMARK    1  A    between atoms: C_8  and  N_9 
REMARK    2  A    between atoms: C_11  and  C_12 
REMARK       I    between atoms: C_12  and  N_14 
REMARK    3  A    between atoms: C_20  and  O_21 
ROOT
HETATM    1  C   UNL     1      -0.581  14.535  25.114  0.00  0.00     0.016 A 
HETATM    2  C   UNL     1       0.372  15.410  24.590  0.00  0.00     0.001 A 
HETATM    3  C   UNL     1       0.106  16.071  23.401  0.00  0.00     0.002 A 
HETATM    4  C   UNL     1      -1.098  15.830  22.736  0.00  0.00     0.032 A 
HETATM    5  C   UNL     1      -2.048  14.939  23.228  0.00  0.00     0.072 A 
HETATM    6  C   UNL     1      -1.813  14.297  24.445  0.00  0.00     0.027 A 
HETATM    7  N   UNL     1      -3.140  14.726  22.486  0.00  0.00    -0.218 NA
HETATM    8  C   UNL     1      -4.045  13.865  22.937  0.00  0.00     0.200 A 
HETATM    9  N   UNL     1      -3.985  13.240  24.105  0.00  0.00    -0.212 NA
HETATM   10  C   UNL     1      -2.862  13.446  24.840  0.00  0.00     0.140 A 
ENDROOT
BRANCH  10  11
HETATM   11  C   UNL     1      -2.817  12.672  26.140  0.00  0.00     0.273 C 
HETATM   12  O   UNL     1      -3.179  13.204  27.188  0.00  0.00    -0.266 OA
HETATM   13  N   UNL     1      -2.341  11.360  26.143  0.00  0.00    -0.342 N 
HETATM   14  C   UNL     1      -2.269  10.572  27.371  0.00  0.00     0.139 C 
HETATM   15  C   UNL     1      -1.840  10.617  25.004  0.00  0.00     0.161 C 
HETATM   16  C   UNL     1      -1.030   9.706  27.155  0.00  0.00     0.057 C 
HETATM   17  C   UNL     1      -0.989   9.565  25.650  0.00  0.00    -0.050 C 
HETATM   18  C   UNL     1      -0.901   8.358  27.809  0.00  0.00    -0.013 C 
HETATM   19  C   UNL     1      -0.297   8.602  25.024  0.00  0.00     0.041 C 
HETATM   20  C   UNL     1       0.387   7.579  25.857  0.00  0.00     0.065 C 
HETATM   21  C   UNL     1      -0.189   7.374  27.225  0.00  0.00     0.033 C 
BRANCH  20  22
HETATM   22  O   UNL     1       1.387   6.909  25.392  0.00  0.00    -0.361 OA
HETATM   23  H   UNL     1       2.037   6.657  26.090  0.00  0.00     0.217 HD
ENDBRANCH  20  22
ENDBRANCH  10  11
BRANCH   8  24
HETATM   24  N   UNL     1      -5.114  13.579  22.114  0.00  0.00    -0.271 NA
HETATM   25  H   UNL     1      -4.785  13.471  21.162  0.00  0.00     0.127 HD
HETATM   26  H   UNL     1      -5.873  14.227  22.260  0.00  0.00     0.127 HD
ENDBRANCH   8  24
TORSDOF 3
ENDMDL
