MODEL 1
REMARK VINA RESULT:    -7.687      0.000      0.000
REMARK INTER + INTRA:         -12.157
REMARK INTER:                 -10.936
REMARK INTRA:                  -1.221
REMARK UNBOUND:                -1.549
REMARK  7 active torsions:
REMARK  status: ('A' for Active; 'I' for Inactive)
REMARK    1  A    between atoms: N_6  and  C_7 
REMARK    2  A    between atoms: C_12  and  N_13 
REMARK       I    between atoms: N_13  and  C_15 
REMARK    3  A    between atoms: C_15  and  C_17 
REMARK    4  A    between atoms: C_18  and  O_20 
REMARK    5  A    between atoms: C_24  and  C_28 
REMARK    6  A    between atoms: C_28  and  C_29 
REMARK    7  A    between atoms: C_33  and  O_35 
ROOT
HETATM    1  C   UNL     1       4.362   7.391  22.447  0.00  0.00     0.066 C 
HETATM    2  C   UNL     1       5.565   6.676  22.287  0.00  0.00     0.083 C 
HETATM    3  C   UNL     1       6.072   6.355  21.023  0.00  0.00     0.069 C 
HETATM    4  C   UNL     1       3.709   7.881  21.296  0.00  0.00     0.035 C 
HETATM    5  C   UNL     1       4.114   7.444  20.016  0.00  0.00     0.020 A 
HETATM    6  C   UNL     1       5.295   6.719  19.914  0.00  0.00     0.065 A 
HETATM    7  C   UNL     1       3.599   7.496  18.678  0.00  0.00     0.071 A 
HETATM    8  N   UNL     1       4.465   6.938  17.813  0.00  0.00    -0.178 NA
HETATM    9  N   UNL     1       5.480   6.509  18.580  0.00  0.00    -0.277 N 
HETATM   10  H   UNL     1       6.266   6.056  18.130  0.00  0.00     0.189 HD
ENDROOT
BRANCH   1  11
HETATM   11  C   UNL     1       3.807   7.564  23.839  0.00  0.00     0.260 C 
HETATM   12  N   UNL     1       2.944   6.582  24.420  0.00  0.00    -0.318 N 
HETATM   13  C   UNL     1       2.585   5.370  23.686  0.00  0.00     0.159 C 
HETATM   14  O   UNL     1       4.256   8.544  24.435  0.00  0.00    -0.267 OA
BRANCH  12  15
HETATM   15  C   UNL     1       2.448   6.709  25.785  0.00  0.00     0.037 A 
HETATM   16  C   UNL     1       3.197   6.273  26.893  0.00  0.00     0.032 A 
HETATM   17  C   UNL     1       2.780   6.483  28.221  0.00  0.00     0.031 A 
HETATM   18  C   UNL     1       1.592   7.139  28.527  0.00  0.00     0.030 A 
HETATM   19  C   UNL     1       0.802   7.488  27.425  0.00  0.00     0.031 A 
HETATM   20  C   UNL     1       1.214   7.283  26.091  0.00  0.00     0.032 A 
BRANCH  18  21
HETATM   21  N   UNL     1       1.198   7.404  29.817  0.00  0.00    -0.377 N 
HETATM   22  C   UNL     1       0.972   8.753  30.359  0.00  0.00     0.149 C 
HETATM   23  C   UNL     1       1.572   8.808  31.779  0.00  0.00     0.187 C 
HETATM   24  O   UNL     1       1.045   7.776  32.634  0.00  0.00    -0.388 OA
HETATM   25  C   UNL     1       1.278   6.475  32.062  0.00  0.00     0.187 C 
HETATM   26  C   UNL     1       0.627   6.357  30.679  0.00  0.00     0.149 C 
ENDBRANCH  18  21
ENDBRANCH  12  15
ENDBRANCH   1  11
BRANCH   2  27
HETATM   27  O   UNL     1       6.327   6.235  23.343  0.00  0.00    -0.360 OA
HETATM   28  H   UNL     1       6.226   5.258  23.398  0.00  0.00     0.217 HD
ENDBRANCH   2  27
BRANCH   7  29
HETATM   29  C   UNL     1       2.304   8.063  18.145  0.00  0.00     0.100 C 
BRANCH  29  30
HETATM   30  C   UNL     1       1.508   7.032  17.344  0.00  0.00    -0.050 A 
HETATM   31  C   UNL     1       1.471   7.010  15.941  0.00  0.00     0.007 A 
HETATM   32  C   UNL     1       0.697   6.076  15.251  0.00  0.00     0.003 A 
HETATM   33  C   UNL     1      -0.115   5.192  15.950  0.00  0.00     0.037 A 
HETATM   34  C   UNL     1      -0.164   5.227  17.341  0.00  0.00     0.068 A 
HETATM   35  C   UNL     1       0.657   6.127  18.038  0.00  0.00     0.044 A 
BRANCH  34  36
HETATM   36  O   UNL     1      -1.103   4.382  17.864  0.00  0.00    -0.356 OA
HETATM   37  C   UNL     1      -0.733   3.561  18.959  0.00  0.00     0.210 C 
ENDBRANCH  34  36
ENDBRANCH  29  30
ENDBRANCH   7  29
TORSDOF 7
ENDMDL
MODEL 2
REMARK VINA RESULT:    -7.622      0.796      1.378
REMARK INTER + INTRA:         -12.068
REMARK INTER:                 -10.809
REMARK INTRA:                  -1.259
REMARK UNBOUND:                -1.549
REMARK  7 active torsions:
REMARK  status: ('A' for Active; 'I' for Inactive)
REMARK    1  A    between atoms: N_6  and  C_7 
REMARK    2  A    between atoms: C_12  and  N_13 
REMARK       I    between atoms: N_13  and  C_15 
REMARK    3  A    between atoms: C_15  and  C_17 
REMARK    4  A    between atoms: C_18  and  O_20 
REMARK    5  A    between atoms: C_24  and  C_28 
REMARK    6  A    between atoms: C_28  and  C_29 
REMARK    7  A    between atoms: C_33  and  O_35 
ROOT
HETATM    1  C   UNL     1       4.403   7.421  22.500  0.00  0.00     0.066 C 
HETATM    2  C   UNL     1       5.592   6.682  22.337  0.00  0.00     0.083 C 
HETATM    3  C   UNL     1       6.100   6.371  21.072  0.00  0.00     0.069 C 
HETATM    4  C   UNL     1       3.769   7.943  21.353  0.00  0.00     0.035 C 
HETATM    5  C   UNL     1       4.173   7.517  20.069  0.00  0.00     0.020 A 
HETATM    6  C   UNL     1       5.340   6.768  19.963  0.00  0.00     0.065 A 
HETATM    7  C   UNL     1       3.669   7.602  18.728  0.00  0.00     0.071 A 
HETATM    8  N   UNL     1       4.529   7.038  17.861  0.00  0.00    -0.178 NA
HETATM    9  N   UNL     1       5.529   6.576  18.627  0.00  0.00    -0.277 N 
HETATM   10  H   UNL     1       6.309   6.113  18.176  0.00  0.00     0.189 HD
ENDROOT
BRANCH   1  11
HETATM   11  C   UNL     1       3.842   7.585  23.891  0.00  0.00     0.260 C 
HETATM   12  N   UNL     1       2.958   6.610  24.453  0.00  0.00    -0.318 N 
HETATM   13  C   UNL     1       2.581   5.415  23.699  0.00  0.00     0.159 C 
HETATM   14  O   UNL     1       4.305   8.547  24.503  0.00  0.00    -0.267 OA
BRANCH  12  15
HETATM   15  C   UNL     1       2.455   6.726  25.816  0.00  0.00     0.037 A 
HETATM   16  C   UNL     1       3.117   6.134  26.906  0.00  0.00     0.032 A 
HETATM   17  C   UNL     1       2.704   6.325  28.239  0.00  0.00     0.031 A 
HETATM   18  C   UNL     1       1.608   7.115  28.566  0.00  0.00     0.030 A 
HETATM   19  C   UNL     1       0.893   7.626  27.476  0.00  0.00     0.031 A 
HETATM   20  C   UNL     1       1.301   7.442  26.139  0.00  0.00     0.032 A 
BRANCH  18  21
HETATM   21  N   UNL     1       1.225   7.359  29.865  0.00  0.00    -0.377 N 
HETATM   22  C   UNL     1       0.911   8.691  30.405  0.00  0.00     0.149 C 
HETATM   23  C   UNL     1       1.540   8.801  31.809  0.00  0.00     0.187 C 
HETATM   24  O   UNL     1       1.113   7.739  32.682  0.00  0.00    -0.388 OA
HETATM   25  C   UNL     1       1.431   6.455  32.112  0.00  0.00     0.187 C 
HETATM   26  C   UNL     1       0.757   6.278  30.746  0.00  0.00     0.149 C 
ENDBRANCH  18  21
ENDBRANCH  12  15
ENDBRANCH   1  11
BRANCH   2  27
HETATM   27  O   UNL     1       6.336   6.209  23.391  0.00  0.00    -0.360 OA
HETATM   28  H   UNL     1       6.651   6.984  23.908  0.00  0.00     0.217 HD
ENDBRANCH   2  27
BRANCH   7  29
HETATM   29  C   UNL     1       2.391   8.205  18.195  0.00  0.00     0.100 C 
BRANCH  29  30
HETATM   30  C   UNL     1       1.419   7.141  17.684  0.00  0.00    -0.050 A 
HETATM   31  C   UNL     1       0.681   6.302  18.534  0.00  0.00     0.007 A 
HETATM   32  C   UNL     1      -0.164   5.315  18.023  0.00  0.00     0.003 A 
HETATM   33  C   UNL     1      -0.231   5.097  16.653  0.00  0.00     0.037 A 
HETATM   34  C   UNL     1       0.539   5.858  15.778  0.00  0.00     0.068 A 
HETATM   35  C   UNL     1       1.345   6.888  16.286  0.00  0.00     0.044 A 
BRANCH  34  36
HETATM   36  O   UNL     1       0.451   5.432  14.481  0.00  0.00    -0.356 OA
HETATM   37  C   UNL     1       0.956   4.147  14.159  0.00  0.00     0.210 C 
ENDBRANCH  34  36
ENDBRANCH  29  30
ENDBRANCH   7  29
TORSDOF 7
ENDMDL
MODEL 3
REMARK VINA RESULT:    -7.423      3.177     10.215
REMARK INTER + INTRA:         -11.793
REMARK INTER:                 -10.744
REMARK INTRA:                  -1.049
REMARK UNBOUND:                -1.549
REMARK  7 active torsions:
REMARK  status: ('A' for Active; 'I' for Inactive)
REMARK    1  A    between atoms: N_6  and  C_7 
REMARK    2  A    between atoms: C_12  and  N_13 
REMARK       I    between atoms: N_13  and  C_15 
REMARK    3  A    between atoms: C_15  and  C_17 
REMARK    4  A    between atoms: C_18  and  O_20 
REMARK    5  A    between atoms: C_24  and  C_28 
REMARK    6  A    between atoms: C_28  and  C_29 
REMARK    7  A    between atoms: C_33  and  O_35 
ROOT
HETATM    1  C   UNL     1       3.542   6.298  22.860  0.00  0.00     0.066 C 
HETATM    2  C   UNL     1       4.870   6.558  23.252  0.00  0.00     0.083 C 
HETATM    3  C   UNL     1       5.198   6.902  24.568  0.00  0.00     0.069 C 
HETATM    4  C   UNL     1       2.535   6.289  23.847  0.00  0.00     0.035 C 
HETATM    5  C   UNL     1       2.813   6.779  25.142  0.00  0.00     0.020 A 
HETATM    6  C   UNL     1       4.136   7.045  25.473  0.00  0.00     0.065 A 
HETATM    7  C   UNL     1       2.062   7.156  26.305  0.00  0.00     0.071 A 
HETATM    8  N   UNL     1       2.884   7.519  27.305  0.00  0.00    -0.178 NA
HETATM    9  N   UNL     1       4.117   7.414  26.785  0.00  0.00    -0.277 N 
HETATM   10  H   UNL     1       4.911   7.633  27.375  0.00  0.00     0.189 HD
ENDROOT
BRANCH   1  11
HETATM   11  C   UNL     1       3.253   6.083  21.394  0.00  0.00     0.260 C 
HETATM   12  N   UNL     1       2.787   4.821  20.909  0.00  0.00    -0.318 N 
HETATM   13  C   UNL     1       2.562   3.701  21.822  0.00  0.00     0.159 C 
HETATM   14  O   UNL     1       3.347   7.106  20.715  0.00  0.00    -0.267 OA
BRANCH  12  15
HETATM   15  C   UNL     1       2.450   4.617  19.506  0.00  0.00     0.037 A 
HETATM   16  C   UNL     1       3.027   3.585  18.744  0.00  0.00     0.032 A 
HETATM   17  C   UNL     1       2.634   3.309  17.420  0.00  0.00     0.031 A 
HETATM   18  C   UNL     1       1.645   4.043  16.775  0.00  0.00     0.030 A 
HETATM   19  C   UNL     1       1.139   5.129  17.499  0.00  0.00     0.031 A 
HETATM   20  C   UNL     1       1.525   5.411  18.826  0.00  0.00     0.032 A 
BRANCH  18  21
HETATM   21  N   UNL     1       1.208   3.750  15.504  0.00  0.00    -0.377 N 
HETATM   22  C   UNL     1       0.679   4.743  14.555  0.00  0.00     0.149 C 
HETATM   23  C   UNL     1      -0.549   4.129  13.852  0.00  0.00     0.187 C 
HETATM   24  O   UNL     1      -0.243   2.872  13.220  0.00  0.00    -0.388 OA
HETATM   25  C   UNL     1       0.279   1.935  14.180  0.00  0.00     0.187 C 
HETATM   26  C   UNL     1       1.550   2.479  14.845  0.00  0.00     0.149 C 
ENDBRANCH  18  21
ENDBRANCH  12  15
ENDBRANCH   1  11
BRANCH   2  27
HETATM   27  O   UNL     1       5.937   6.501  22.388  0.00  0.00    -0.360 OA
HETATM   28  H   UNL     1       6.720   6.872  22.853  0.00  0.00     0.217 HD
ENDBRANCH   2  27
BRANCH   7  29
HETATM   29  C   UNL     1       0.570   7.191  26.543  0.00  0.00     0.100 C 
BRANCH  29  30
HETATM   30  C   UNL     1      -0.019   8.582  26.311  0.00  0.00    -0.050 A 
HETATM   31  C   UNL     1      -0.458   9.415  27.353  0.00  0.00     0.007 A 
HETATM   32  C   UNL     1      -1.028  10.662  27.094  0.00  0.00     0.003 A 
HETATM   33  C   UNL     1      -1.243  11.070  25.784  0.00  0.00     0.037 A 
HETATM   34  C   UNL     1      -0.890  10.245  24.719  0.00  0.00     0.068 A 
HETATM   35  C   UNL     1      -0.263   9.016  24.978  0.00  0.00     0.044 A 
BRANCH  34  36
HETATM   36  O   UNL     1      -1.282  10.740  23.507  0.00  0.00    -0.356 OA
HETATM   37  C   UNL     1      -2.107  11.893  23.486  0.00  0.00     0.210 C 
ENDBRANCH  34  36
ENDBRANCH  29  30
ENDBRANCH   7  29
TORSDOF 7
ENDMDL
MODEL 4
REMARK VINA RESULT:    -7.131      3.350     10.979
REMARK INTER + INTRA:         -11.390
REMARK INTER:                 -10.518
REMARK INTRA:                  -0.872
REMARK UNBOUND:                -1.549
REMARK  7 active torsions:
REMARK  status: ('A' for Active; 'I' for Inactive)
REMARK    1  A    between atoms: N_6  and  C_7 
REMARK    2  A    between atoms: C_12  and  N_13 
REMARK       I    between atoms: N_13  and  C_15 
REMARK    3  A    between atoms: C_15  and  C_17 
REMARK    4  A    between atoms: C_18  and  O_20 
REMARK    5  A    between atoms: C_24  and  C_28 
REMARK    6  A    between atoms: C_28  and  C_29 
REMARK    7  A    between atoms: C_33  and  O_35 
ROOT
HETATM    1  C   UNL     1       3.850   6.671  20.062  0.00  0.00     0.066 C 
HETATM    2  C   UNL     1       4.609   7.826  19.790  0.00  0.00     0.083 C 
HETATM    3  C   UNL     1       4.865   8.790  20.770  0.00  0.00     0.069 C 
HETATM    4  C   UNL     1       3.426   6.437  21.386  0.00  0.00     0.035 C 
HETATM    5  C   UNL     1       3.538   7.460  22.353  0.00  0.00     0.020 A 
HETATM    6  C   UNL     1       4.276   8.592  22.027  0.00  0.00     0.065 A 
HETATM    7  C   UNL     1       3.037   7.717  23.673  0.00  0.00     0.071 A 
HETATM    8  N   UNL     1       3.528   8.873  24.152  0.00  0.00    -0.178 NA
HETATM    9  N   UNL     1       4.287   9.357  23.156  0.00  0.00    -0.277 N 
HETATM   10  H   UNL     1       4.773  10.233  23.301  0.00  0.00     0.189 HD
ENDROOT
BRANCH   1  11
HETATM   11  C   UNL     1       3.493   5.758  18.915  0.00  0.00     0.260 C 
HETATM   12  N   UNL     1       2.277   5.930  18.182  0.00  0.00    -0.318 N 
HETATM   13  C   UNL     1       1.346   7.008  18.514  0.00  0.00     0.159 C 
HETATM   14  O   UNL     1       4.383   4.959  18.620  0.00  0.00    -0.267 OA
BRANCH  12  15
HETATM   15  C   UNL     1       1.947   5.092  17.036  0.00  0.00     0.037 A 
HETATM   16  C   UNL     1       1.982   3.688  17.105  0.00  0.00     0.032 A 
HETATM   17  C   UNL     1       1.566   2.865  16.042  0.00  0.00     0.031 A 
HETATM   18  C   UNL     1       1.091   3.389  14.845  0.00  0.00     0.030 A 
HETATM   19  C   UNL     1       1.145   4.784  14.740  0.00  0.00     0.031 A 
HETATM   20  C   UNL     1       1.558   5.616  15.802  0.00  0.00     0.032 A 
BRANCH  18  21
HETATM   21  N   UNL     1       0.626   2.602  13.818  0.00  0.00    -0.377 N 
HETATM   22  C   UNL     1      -0.169   3.095  12.682  0.00  0.00     0.149 C 
HETATM   23  C   UNL     1      -1.295   2.079  12.405  0.00  0.00     0.187 C 
HETATM   24  O   UNL     1      -0.788   0.750  12.184  0.00  0.00    -0.388 OA
HETATM   25  C   UNL     1      -0.010   0.310  13.313  0.00  0.00     0.187 C 
HETATM   26  C   UNL     1       1.169   1.256  13.572  0.00  0.00     0.149 C 
ENDBRANCH  18  21
ENDBRANCH  12  15
ENDBRANCH   1  11
BRANCH   2  27
HETATM   27  O   UNL     1       5.149   8.102  18.556  0.00  0.00    -0.360 OA
HETATM   28  H   UNL     1       4.613   8.819  18.148  0.00  0.00     0.217 HD
ENDBRANCH   2  27
BRANCH   7  29
HETATM   29  C   UNL     1       2.098   6.912  24.541  0.00  0.00     0.100 C 
BRANCH  29  30
HETATM   30  C   UNL     1       1.251   7.799  25.453  0.00  0.00    -0.050 A 
HETATM   31  C   UNL     1       1.323   7.753  26.854  0.00  0.00     0.007 A 
HETATM   32  C   UNL     1       0.500   8.552  27.650  0.00  0.00     0.003 A 
HETATM   33  C   UNL     1      -0.466   9.358  27.061  0.00  0.00     0.037 A 
HETATM   34  C   UNL     1      -0.621   9.380  25.678  0.00  0.00     0.068 A 
HETATM   35  C   UNL     1       0.244   8.622  24.875  0.00  0.00     0.044 A 
BRANCH  34  36
HETATM   36  O   UNL     1      -1.694  10.125  25.273  0.00  0.00    -0.356 OA
HETATM   37  C   UNL     1      -1.462  11.218  24.399  0.00  0.00     0.210 C 
ENDBRANCH  34  36
ENDBRANCH  29  30
ENDBRANCH   7  29
TORSDOF 7
ENDMDL
MODEL 5
REMARK VINA RESULT:    -7.086      3.679     10.860
REMARK INTER + INTRA:         -11.328
REMARK INTER:                 -10.614
REMARK INTRA:                  -0.714
REMARK UNBOUND:                -1.549
REMARK  7 active torsions:
REMARK  status: ('A' for Active; 'I' for Inactive)
REMARK    1  A    between atoms: N_6  and  C_7 
REMARK    2  A    between atoms: C_12  and  N_13 
REMARK       I    between atoms: N_13  and  C_15 
REMARK    3  A    between atoms: C_15  and  C_17 
REMARK    4  A    between atoms: C_18  and  O_20 
REMARK    5  A    between atoms: C_24  and  C_28 
REMARK    6  A    between atoms: C_28  and  C_29 
REMARK    7  A    between atoms: C_33  and  O_35 
ROOT
HETATM    1  C   UNL     1       3.324   5.726  19.152  0.00  0.00     0.066 C 
HETATM    2  C   UNL     1       4.616   6.093  18.725  0.00  0.00     0.083 C 
HETATM    3  C   UNL     1       5.613   6.472  19.629  0.00  0.00     0.069 C 
HETATM    4  C   UNL     1       3.068   5.644  20.536  0.00  0.00     0.035 C 
HETATM    5  C   UNL     1       4.002   6.165  21.458  0.00  0.00     0.020 A 
HETATM    6  C   UNL     1       5.254   6.537  20.983  0.00  0.00     0.065 A 
HETATM    7  C   UNL     1       4.028   6.490  22.855  0.00  0.00     0.071 A 
HETATM    8  N   UNL     1       5.248   6.925  23.219  0.00  0.00    -0.178 NA
HETATM    9  N   UNL     1       5.964   6.914  22.084  0.00  0.00    -0.277 N 
HETATM   10  H   UNL     1       6.935   7.199  22.123  0.00  0.00     0.189 HD
ENDROOT
BRANCH   1  11
HETATM   11  C   UNL     1       2.264   5.477  18.107  0.00  0.00     0.260 C 
HETATM   12  N   UNL     1       2.120   4.196  17.488  0.00  0.00    -0.318 N 
HETATM   13  C   UNL     1       2.989   3.080  17.860  0.00  0.00     0.159 C 
HETATM   14  O   UNL     1       1.496   6.426  17.943  0.00  0.00    -0.267 OA
BRANCH  12  15
HETATM   15  C   UNL     1       1.064   3.926  16.520  0.00  0.00     0.037 A 
HETATM   16  C   UNL     1       0.060   2.972  16.761  0.00  0.00     0.032 A 
HETATM   17  C   UNL     1      -1.025   2.774  15.886  0.00  0.00     0.031 A 
HETATM   18  C   UNL     1      -1.175   3.513  14.718  0.00  0.00     0.030 A 
HETATM   19  C   UNL     1      -0.126   4.395  14.430  0.00  0.00     0.031 A 
HETATM   20  C   UNL     1       0.962   4.601  15.303  0.00  0.00     0.032 A 
BRANCH  18  21
HETATM   21  N   UNL     1      -2.258   3.375  13.881  0.00  0.00    -0.377 N 
HETATM   22  C   UNL     1      -2.639   4.346  12.843  0.00  0.00     0.149 C 
HETATM   23  C   UNL     1      -4.172   4.508  12.877  0.00  0.00     0.187 C 
HETATM   24  O   UNL     1      -4.858   3.250  12.732  0.00  0.00    -0.388 OA
HETATM   25  C   UNL     1      -4.449   2.328  13.759  0.00  0.00     0.187 C 
HETATM   26  C   UNL     1      -2.937   2.080  13.706  0.00  0.00     0.149 C 
ENDBRANCH  18  21
ENDBRANCH  12  15
ENDBRANCH   1  11
BRANCH   2  27
HETATM   27  O   UNL     1       4.996   6.114  17.404  0.00  0.00    -0.360 OA
HETATM   28  H   UNL     1       4.347   6.668  16.914  0.00  0.00     0.217 HD
ENDBRANCH   2  27
BRANCH   7  29
HETATM   29  C   UNL     1       2.943   6.408  23.904  0.00  0.00     0.100 C 
BRANCH  29  30
HETATM   30  C   UNL     1       2.390   7.785  24.271  0.00  0.00    -0.050 A 
HETATM   31  C   UNL     1       3.138   8.968  24.164  0.00  0.00     0.007 A 
HETATM   32  C   UNL     1       2.606  10.199  24.550  0.00  0.00     0.003 A 
HETATM   33  C   UNL     1       1.342  10.263  25.122  0.00  0.00     0.037 A 
HETATM   34  C   UNL     1       0.593   9.105  25.314  0.00  0.00     0.068 A 
HETATM   35  C   UNL     1       1.103   7.874  24.873  0.00  0.00     0.044 A 
BRANCH  34  36
HETATM   36  O   UNL     1      -0.568   9.326  26.001  0.00  0.00    -0.356 OA
HETATM   37  C   UNL     1      -1.024  10.661  26.137  0.00  0.00     0.210 C 
ENDBRANCH  34  36
ENDBRANCH  29  30
ENDBRANCH   7  29
TORSDOF 7
ENDMDL
MODEL 6
REMARK VINA RESULT:    -7.085      2.529      9.974
REMARK INTER + INTRA:         -11.326
REMARK INTER:                 -10.247
REMARK INTRA:                  -1.079
REMARK UNBOUND:                -1.549
REMARK  7 active torsions:
REMARK  status: ('A' for Active; 'I' for Inactive)
REMARK    1  A    between atoms: N_6  and  C_7 
REMARK    2  A    between atoms: C_12  and  N_13 
REMARK       I    between atoms: N_13  and  C_15 
REMARK    3  A    between atoms: C_15  and  C_17 
REMARK    4  A    between atoms: C_18  and  O_20 
REMARK    5  A    between atoms: C_24  and  C_28 
REMARK    6  A    between atoms: C_28  and  C_29 
REMARK    7  A    between atoms: C_33  and  O_35 
ROOT
HETATM    1  C   UNL     1       3.134   5.499  25.731  0.00  0.00     0.066 C 
HETATM    2  C   UNL     1       4.425   5.537  26.295  0.00  0.00     0.083 C 
HETATM    3  C   UNL     1       4.639   5.913  27.625  0.00  0.00     0.069 C 
HETATM    4  C   UNL     1       2.025   5.751  26.565  0.00  0.00     0.035 C 
HETATM    5  C   UNL     1       2.222   6.278  27.860  0.00  0.00     0.020 A 
HETATM    6  C   UNL     1       3.517   6.318  28.362  0.00  0.00     0.065 A 
HETATM    7  C   UNL     1       1.413   6.875  28.884  0.00  0.00     0.071 A 
HETATM    8  N   UNL     1       2.153   7.155  29.972  0.00  0.00    -0.178 NA
HETATM    9  N   UNL     1       3.399   6.784  29.638  0.00  0.00    -0.277 N 
HETATM   10  H   UNL     1       4.136   6.896  30.323  0.00  0.00     0.189 HD
ENDROOT
BRANCH   1  11
HETATM   11  C   UNL     1       3.003   5.230  24.252  0.00  0.00     0.260 C 
HETATM   12  N   UNL     1       2.975   6.301  23.304  0.00  0.00    -0.318 N 
HETATM   13  C   UNL     1       3.089   7.692  23.739  0.00  0.00     0.159 C 
HETATM   14  O   UNL     1       3.041   4.034  23.960  0.00  0.00    -0.267 OA
BRANCH  12  15
HETATM   15  C   UNL     1       2.907   6.053  21.870  0.00  0.00     0.037 A 
HETATM   16  C   UNL     1       2.177   4.978  21.334  0.00  0.00     0.032 A 
HETATM   17  C   UNL     1       2.014   4.786  19.948  0.00  0.00     0.031 A 
HETATM   18  C   UNL     1       2.569   5.652  19.013  0.00  0.00     0.030 A 
HETATM   19  C   UNL     1       3.375   6.667  19.543  0.00  0.00     0.031 A 
HETATM   20  C   UNL     1       3.541   6.867  20.930  0.00  0.00     0.032 A 
BRANCH  18  21
HETATM   21  N   UNL     1       2.372   5.514  17.659  0.00  0.00    -0.377 N 
HETATM   22  C   UNL     1       2.898   6.437  16.641  0.00  0.00     0.149 C 
HETATM   23  C   UNL     1       1.795   6.672  15.589  0.00  0.00     0.187 C 
HETATM   24  O   UNL     1       1.315   5.440  15.019  0.00  0.00    -0.388 OA
HETATM   25  C   UNL     1       0.819   4.564  16.048  0.00  0.00     0.187 C 
HETATM   26  C   UNL     1       1.914   4.244  17.073  0.00  0.00     0.149 C 
ENDBRANCH  18  21
ENDBRANCH  12  15
ENDBRANCH   1  11
BRANCH   2  27
HETATM   27  O   UNL     1       5.564   5.218  25.595  0.00  0.00    -0.360 OA
HETATM   28  H   UNL     1       6.329   5.616  26.070  0.00  0.00     0.217 HD
ENDBRANCH   2  27
BRANCH   7  29
HETATM   29  C   UNL     1      -0.061   7.204  28.905  0.00  0.00     0.100 C 
BRANCH  29  30
HETATM   30  C   UNL     1      -0.376   8.498  28.155  0.00  0.00    -0.050 A 
HETATM   31  C   UNL     1      -0.787   9.678  28.795  0.00  0.00     0.007 A 
HETATM   32  C   UNL     1      -1.104  10.826  28.067  0.00  0.00     0.003 A 
HETATM   33  C   UNL     1      -1.089  10.795  26.679  0.00  0.00     0.037 A 
HETATM   34  C   UNL     1      -0.758   9.625  26.001  0.00  0.00     0.068 A 
HETATM   35  C   UNL     1      -0.383   8.488  26.732  0.00  0.00     0.044 A 
BRANCH  34  36
HETATM   36  O   UNL     1      -0.914   9.730  24.647  0.00  0.00    -0.356 OA
HETATM   37  C   UNL     1      -1.449  10.934  24.122  0.00  0.00     0.210 C 
ENDBRANCH  34  36
ENDBRANCH  29  30
ENDBRANCH   7  29
TORSDOF 7
ENDMDL
MODEL 7
REMARK VINA RESULT:    -7.042      3.610      6.546
REMARK INTER + INTRA:         -11.267
REMARK INTER:                  -9.718
REMARK INTRA:                  -1.549
REMARK UNBOUND:                -1.549
REMARK  7 active torsions:
REMARK  status: ('A' for Active; 'I' for Inactive)
REMARK    1  A    between atoms: N_6  and  C_7 
REMARK    2  A    between atoms: C_12  and  N_13 
REMARK       I    between atoms: N_13  and  C_15 
REMARK    3  A    between atoms: C_15  and  C_17 
REMARK    4  A    between atoms: C_18  and  O_20 
REMARK    5  A    between atoms: C_24  and  C_28 
REMARK    6  A    between atoms: C_28  and  C_29 
REMARK    7  A    between atoms: C_33  and  O_35 
ROOT
HETATM    1  C   UNL     1       1.208   5.195  17.201  0.00  0.00     0.066 C 
HETATM    2  C   UNL     1       1.111   6.246  16.268  0.00  0.00     0.083 C 
HETATM    3  C   UNL     1       1.010   6.006  14.893  0.00  0.00     0.069 C 
HETATM    4  C   UNL     1       1.097   3.867  16.738  0.00  0.00     0.035 C 
HETATM    5  C   UNL     1       1.149   3.597  15.353  0.00  0.00     0.020 A 
HETATM    6  C   UNL     1       1.075   4.670  14.473  0.00  0.00     0.065 A 
HETATM    7  C   UNL     1       1.309   2.445  14.514  0.00  0.00     0.071 A 
HETATM    8  N   UNL     1       1.228   2.786  13.216  0.00  0.00    -0.178 NA
HETATM    9  N   UNL     1       1.060   4.118  13.227  0.00  0.00    -0.277 N 
HETATM   10  H   UNL     1       0.962   4.599  12.341  0.00  0.00     0.189 HD
ENDROOT
BRANCH   1  11
HETATM   11  C   UNL     1       1.466   5.538  18.648  0.00  0.00     0.260 C 
HETATM   12  N   UNL     1       2.789   5.508  19.192  0.00  0.00    -0.318 N 
HETATM   13  C   UNL     1       3.936   5.156  18.357  0.00  0.00     0.159 C 
HETATM   14  O   UNL     1       0.470   5.945  19.247  0.00  0.00    -0.267 OA
BRANCH  12  15
HETATM   15  C   UNL     1       3.059   5.894  20.571  0.00  0.00     0.037 A 
HETATM   16  C   UNL     1       3.671   7.117  20.895  0.00  0.00     0.032 A 
HETATM   17  C   UNL     1       3.844   7.551  22.224  0.00  0.00     0.031 A 
HETATM   18  C   UNL     1       3.419   6.793  23.309  0.00  0.00     0.030 A 
HETATM   19  C   UNL     1       2.897   5.533  22.990  0.00  0.00     0.031 A 
HETATM   20  C   UNL     1       2.719   5.093  21.662  0.00  0.00     0.032 A 
BRANCH  18  21
HETATM   21  N   UNL     1       3.526   7.226  24.610  0.00  0.00    -0.377 N 
HETATM   22  C   UNL     1       4.596   6.824  25.537  0.00  0.00     0.149 C 
HETATM   23  C   UNL     1       3.960   6.555  26.916  0.00  0.00     0.187 C 
HETATM   24  O   UNL     1       3.208   7.683  27.400  0.00  0.00    -0.388 OA
HETATM   25  C   UNL     1       2.180   8.048  26.460  0.00  0.00     0.187 C 
HETATM   26  C   UNL     1       2.783   8.400  25.095  0.00  0.00     0.149 C 
ENDBRANCH  18  21
ENDBRANCH  12  15
ENDBRANCH   1  11
BRANCH   2  27
HETATM   27  O   UNL     1       1.114   7.573  16.623  0.00  0.00    -0.360 OA
HETATM   28  H   UNL     1       1.967   7.962  16.325  0.00  0.00     0.217 HD
ENDBRANCH   2  27
BRANCH   7  29
HETATM   29  C   UNL     1       1.536   0.994  14.870  0.00  0.00     0.100 C 
BRANCH  29  30
HETATM   30  C   UNL     1       2.301   0.833  16.183  0.00  0.00    -0.050 A 
HETATM   31  C   UNL     1       1.690   0.449  17.387  0.00  0.00     0.007 A 
HETATM   32  C   UNL     1       2.421   0.355  18.573  0.00  0.00     0.003 A 
HETATM   33  C   UNL     1       3.761   0.717  18.595  0.00  0.00     0.037 A 
HETATM   34  C   UNL     1       4.390   1.174  17.440  0.00  0.00     0.068 A 
HETATM   35  C   UNL     1       3.672   1.213  16.235  0.00  0.00     0.044 A 
BRANCH  34  36
HETATM   36  O   UNL     1       5.668   1.606  17.662  0.00  0.00    -0.356 OA
HETATM   37  C   UNL     1       6.626   0.666  18.116  0.00  0.00     0.210 C 
ENDBRANCH  34  36
ENDBRANCH  29  30
ENDBRANCH   7  29
TORSDOF 7
ENDMDL
MODEL 8
REMARK VINA RESULT:    -7.023      3.995      8.887
REMARK INTER + INTRA:         -11.241
REMARK INTER:                  -9.966
REMARK INTRA:                  -1.275
REMARK UNBOUND:                -1.549
REMARK  7 active torsions:
REMARK  status: ('A' for Active; 'I' for Inactive)
REMARK    1  A    between atoms: N_6  and  C_7 
REMARK    2  A    between atoms: C_12  and  N_13 
REMARK       I    between atoms: N_13  and  C_15 
REMARK    3  A    between atoms: C_15  and  C_17 
REMARK    4  A    between atoms: C_18  and  O_20 
REMARK    5  A    between atoms: C_24  and  C_28 
REMARK    6  A    between atoms: C_28  and  C_29 
REMARK    7  A    between atoms: C_33  and  O_35 
ROOT
HETATM    1  C   UNL     1       2.779   5.172  19.310  0.00  0.00     0.066 C 
HETATM    2  C   UNL     1       3.187   5.781  18.106  0.00  0.00     0.083 C 
HETATM    3  C   UNL     1       4.405   6.459  17.996  0.00  0.00     0.069 C 
HETATM    4  C   UNL     1       3.675   5.164  20.399  0.00  0.00     0.035 C 
HETATM    5  C   UNL     1       4.836   5.967  20.364  0.00  0.00     0.020 A 
HETATM    6  C   UNL     1       5.181   6.567  19.159  0.00  0.00     0.065 A 
HETATM    7  C   UNL     1       5.828   6.418  21.296  0.00  0.00     0.071 A 
HETATM    8  N   UNL     1       6.768   7.151  20.673  0.00  0.00    -0.178 NA
HETATM    9  N   UNL     1       6.368   7.196  19.392  0.00  0.00    -0.277 N 
HETATM   10  H   UNL     1       6.941   7.697  18.725  0.00  0.00     0.189 HD
ENDROOT
BRANCH   1  11
HETATM   11  C   UNL     1       1.388   4.593  19.389  0.00  0.00     0.260 C 
HETATM   12  N   UNL     1       1.114   3.261  18.944  0.00  0.00    -0.318 N 
HETATM   13  C   UNL     1       2.179   2.413  18.411  0.00  0.00     0.159 C 
HETATM   14  O   UNL     1       0.579   5.322  19.963  0.00  0.00    -0.267 OA
BRANCH  12  15
HETATM   15  C   UNL     1      -0.212   2.670  19.069  0.00  0.00     0.037 A 
HETATM   16  C   UNL     1      -0.412   1.406  19.652  0.00  0.00     0.032 A 
HETATM   17  C   UNL     1      -1.693   0.866  19.875  0.00  0.00     0.031 A 
HETATM   18  C   UNL     1      -2.853   1.552  19.530  0.00  0.00     0.030 A 
HETATM   19  C   UNL     1      -2.653   2.767  18.864  0.00  0.00     0.031 A 
HETATM   20  C   UNL     1      -1.372   3.315  18.639  0.00  0.00     0.032 A 
BRANCH  18  21
HETATM   21  N   UNL     1      -4.112   1.067  19.793  0.00  0.00    -0.377 N 
HETATM   22  C   UNL     1      -5.354   1.843  19.643  0.00  0.00     0.149 C 
HETATM   23  C   UNL     1      -6.261   1.539  20.852  0.00  0.00     0.187 C 
HETATM   24  O   UNL     1      -6.509   0.129  21.006  0.00  0.00    -0.388 OA
HETATM   25  C   UNL     1      -5.271  -0.593  21.140  0.00  0.00     0.187 C 
HETATM   26  C   UNL     1      -4.372  -0.377  19.917  0.00  0.00     0.149 C 
ENDBRANCH  18  21
ENDBRANCH  12  15
ENDBRANCH   1  11
BRANCH   2  27
HETATM   27  O   UNL     1       2.430   5.765  16.958  0.00  0.00    -0.360 OA
HETATM   28  H   UNL     1       2.402   6.682  16.605  0.00  0.00     0.217 HD
ENDBRANCH   2  27
BRANCH   7  29
HETATM   29  C   UNL     1       5.954   6.191  22.785  0.00  0.00     0.100 C 
BRANCH  29  30
HETATM   30  C   UNL     1       4.663   6.525  23.531  0.00  0.00    -0.050 A 
HETATM   31  C   UNL     1       3.829   5.549  24.100  0.00  0.00     0.007 A 
HETATM   32  C   UNL     1       2.637   5.896  24.738  0.00  0.00     0.003 A 
HETATM   33  C   UNL     1       2.216   7.219  24.753  0.00  0.00     0.037 A 
HETATM   34  C   UNL     1       2.975   8.210  24.138  0.00  0.00     0.068 A 
HETATM   35  C   UNL     1       4.202   7.871  23.548  0.00  0.00     0.044 A 
BRANCH  34  36
HETATM   36  O   UNL     1       2.360   9.431  24.135  0.00  0.00    -0.356 OA
HETATM   37  C   UNL     1       1.184   9.593  24.911  0.00  0.00     0.210 C 
ENDBRANCH  34  36
ENDBRANCH  29  30
ENDBRANCH   7  29
TORSDOF 7
ENDMDL
MODEL 9
REMARK VINA RESULT:    -6.984      3.974      9.513
REMARK INTER + INTRA:         -11.187
REMARK INTER:                  -9.860
REMARK INTRA:                  -1.328
REMARK UNBOUND:                -1.549
REMARK  7 active torsions:
REMARK  status: ('A' for Active; 'I' for Inactive)
REMARK    1  A    between atoms: N_6  and  C_7 
REMARK    2  A    between atoms: C_12  and  N_13 
REMARK       I    between atoms: N_13  and  C_15 
REMARK    3  A    between atoms: C_15  and  C_17 
REMARK    4  A    between atoms: C_18  and  O_20 
REMARK    5  A    between atoms: C_24  and  C_28 
REMARK    6  A    between atoms: C_28  and  C_29 
REMARK    7  A    between atoms: C_33  and  O_35 
ROOT
HETATM    1  C   UNL     1       2.413   6.297  25.713  0.00  0.00     0.066 C 
HETATM    2  C   UNL     1       3.464   6.453  26.638  0.00  0.00     0.083 C 
HETATM    3  C   UNL     1       3.365   7.322  27.730  0.00  0.00     0.069 C 
HETATM    4  C   UNL     1       1.193   6.962  25.957  0.00  0.00     0.035 C 
HETATM    5  C   UNL     1       1.120   7.955  26.958  0.00  0.00     0.020 A 
HETATM    6  C   UNL     1       2.194   8.087  27.830  0.00  0.00     0.065 A 
HETATM    7  C   UNL     1       0.202   8.986  27.349  0.00  0.00     0.071 A 
HETATM    8  N   UNL     1       0.641   9.623  28.449  0.00  0.00    -0.178 NA
HETATM    9  N   UNL     1       1.819   9.043  28.727  0.00  0.00    -0.277 N 
HETATM   10  H   UNL     1       2.335   9.363  29.538  0.00  0.00     0.189 HD
ENDROOT
BRANCH   1  11
HETATM   11  C   UNL     1       2.655   5.458  24.482  0.00  0.00     0.260 C 
HETATM   12  N   UNL     1       3.057   6.054  23.246  0.00  0.00    -0.318 N 
HETATM   13  C   UNL     1       3.259   7.499  23.140  0.00  0.00     0.159 C 
HETATM   14  O   UNL     1       2.587   4.245  24.687  0.00  0.00    -0.267 OA
BRANCH  12  15
HETATM   15  C   UNL     1       3.350   5.250  22.067  0.00  0.00     0.037 A 
HETATM   16  C   UNL     1       4.551   4.530  21.937  0.00  0.00     0.032 A 
HETATM   17  C   UNL     1       4.805   3.666  20.854  0.00  0.00     0.031 A 
HETATM   18  C   UNL     1       3.879   3.468  19.835  0.00  0.00     0.030 A 
HETATM   19  C   UNL     1       2.725   4.257  19.915  0.00  0.00     0.031 A 
HETATM   20  C   UNL     1       2.463   5.122  20.997  0.00  0.00     0.032 A 
BRANCH  18  21
HETATM   21  N   UNL     1       4.086   2.585  18.802  0.00  0.00    -0.377 N 
HETATM   22  C   UNL     1       3.140   2.357  17.697  0.00  0.00     0.149 C 
HETATM   23  C   UNL     1       3.075   0.841  17.424  0.00  0.00     0.187 C 
HETATM   24  O   UNL     1       4.374   0.279  17.159  0.00  0.00    -0.388 OA
HETATM   25  C   UNL     1       5.270   0.532  18.258  0.00  0.00     0.187 C 
HETATM   26  C   UNL     1       5.421   2.037  18.510  0.00  0.00     0.149 C 
ENDBRANCH  18  21
ENDBRANCH  12  15
ENDBRANCH   1  11
BRANCH   2  27
HETATM   27  O   UNL     1       4.658   5.780  26.544  0.00  0.00    -0.360 OA
HETATM   28  H   UNL     1       4.456   4.822  26.444  0.00  0.00     0.217 HD
ENDBRANCH   2  27
BRANCH   7  29
HETATM   29  C   UNL     1      -1.109   9.419  26.735  0.00  0.00     0.100 C 
BRANCH  29  30
HETATM   30  C   UNL     1      -0.912  10.414  25.592  0.00  0.00    -0.050 A 
HETATM   31  C   UNL     1       0.192  11.278  25.507  0.00  0.00     0.007 A 
HETATM   32  C   UNL     1       0.311  12.201  24.466  0.00  0.00     0.003 A 
HETATM   33  C   UNL     1      -0.707  12.332  23.532  0.00  0.00     0.037 A 
HETATM   34  C   UNL     1      -1.853  11.546  23.619  0.00  0.00     0.068 A 
HETATM   35  C   UNL     1      -1.948  10.577  24.631  0.00  0.00     0.044 A 
BRANCH  34  36
HETATM   36  O   UNL     1      -2.807  11.886  22.701  0.00  0.00    -0.356 OA
HETATM   37  C   UNL     1      -2.410  12.635  21.565  0.00  0.00     0.210 C 
ENDBRANCH  34  36
ENDBRANCH  29  30
ENDBRANCH   7  29
TORSDOF 7
ENDMDL
