MODEL 1
REMARK VINA RESULT:    -8.344      0.000      0.000
REMARK INTER + INTRA:         -11.813
REMARK INTER:                  -9.729
REMARK INTRA:                  -2.084
REMARK UNBOUND:                -1.273
REMARK  5 active torsions:
REMARK  status: ('A' for Active; 'I' for Inactive)
REMARK    1  A    between atoms: C_7  and  C_8 
REMARK    2  A    between atoms: C_8  and  C_9 
REMARK    3  A    between atoms: C_16  and  C_20 
REMARK    4  A    between atoms: C_17  and  O_19 
REMARK       I    between atoms: C_20  and  N_22 
REMARK    5  A    between atoms: N_22  and  C_24 
ROOT
HETATM    1  C   UNL     1       1.405   5.043  16.278  0.00  0.00     0.071 C 
HETATM    2  N   UNL     1       0.240   5.577  15.872  0.00  0.00    -0.178 NA
HETATM    3  N   UNL     1       0.288   6.841  16.314  0.00  0.00    -0.277 N 
HETATM    4  H   UNL     1      -0.501   7.446  16.121  0.00  0.00     0.189 HD
HETATM    5  C   UNL     1       2.204   5.999  16.979  0.00  0.00     0.020 C 
HETATM    6  C   UNL     1       1.396   7.130  17.059  0.00  0.00     0.065 C 
HETATM    7  C   UNL     1       3.469   6.022  17.608  0.00  0.00     0.035 C 
HETATM    8  C   UNL     1       3.841   7.161  18.352  0.00  0.00     0.066 C 
HETATM    9  C   UNL     1       2.927   8.212  18.517  0.00  0.00     0.083 C 
HETATM   10  C   UNL     1       1.720   8.255  17.818  0.00  0.00     0.069 C 
ENDROOT
BRANCH   8  11
HETATM   11  C   UNL     1       5.170   7.245  19.026  0.00  0.00     0.260 C 
HETATM   12  O   UNL     1       6.014   7.933  18.443  0.00  0.00    -0.267 OA
HETATM   13  N   UNL     1       5.403   6.620  20.267  0.00  0.00    -0.318 N 
HETATM   14  C   UNL     1       6.619   6.993  20.992  0.00  0.00     0.159 C 
BRANCH  13  15
HETATM   15  C   UNL     1       4.633   5.547  20.817  0.00  0.00     0.037 A 
HETATM   16  C   UNL     1       3.487   5.799  21.585  0.00  0.00     0.031 A 
HETATM   17  C   UNL     1       2.781   4.756  22.201  0.00  0.00     0.026 A 
HETATM   18  C   UNL     1       3.192   3.438  22.010  0.00  0.00     0.034 A 
HETATM   19 CL   UNL     1       2.344   2.169  22.788  0.00  0.00    -0.084 Cl
HETATM   20  C   UNL     1       4.280   3.164  21.187  0.00  0.00     0.026 A 
HETATM   21  C   UNL     1       4.992   4.216  20.580  0.00  0.00     0.031 A 
ENDBRANCH  13  15
ENDBRANCH   8  11
BRANCH   9  22
HETATM   22  O   UNL     1       3.134   9.242  19.399  0.00  0.00    -0.360 OA
HETATM   23  H   UNL     1       3.898   9.757  19.057  0.00  0.00     0.217 HD
ENDBRANCH   9  22
BRANCH   1  24
HETATM   24  C   UNL     1       1.641   3.573  16.109  0.00  0.00     0.100 C 
BRANCH  24  25
HETATM   25  C   UNL     1       1.131   2.869  17.341  0.00  0.00    -0.052 A 
HETATM   26  C   UNL     1      -0.247   2.830  17.603  0.00  0.00     0.014 A 
HETATM   27  C   UNL     1      -0.742   2.239  18.771  0.00  0.00    -0.061 A 
HETATM   28  C   UNL     1      -2.199   2.330  19.110  0.00  0.00     0.048 C 
HETATM   29  C   UNL     1       0.150   1.635  19.663  0.00  0.00     0.007 A 
HETATM   30  C   UNL     1       1.515   1.607  19.383  0.00  0.00     0.001 A 
HETATM   31  C   UNL     1       2.002   2.219  18.228  0.00  0.00     0.007 A 
ENDBRANCH  24  25
ENDBRANCH   1  24
TORSDOF 5
ENDMDL
MODEL 2
REMARK VINA RESULT:    -8.265      3.661      5.762
REMARK INTER + INTRA:         -11.713
REMARK INTER:                 -10.627
REMARK INTRA:                  -1.086
REMARK UNBOUND:                -1.273
REMARK  5 active torsions:
REMARK  status: ('A' for Active; 'I' for Inactive)
REMARK    1  A    between atoms: C_7  and  C_8 
REMARK    2  A    between atoms: C_8  and  C_9 
REMARK    3  A    between atoms: C_16  and  C_20 
REMARK    4  A    between atoms: C_17  and  O_19 
REMARK       I    between atoms: C_20  and  N_22 
REMARK    5  A    between atoms: N_22  and  C_24 
ROOT
HETATM    1  C   UNL     1       4.050   7.854  19.122  0.00  0.00     0.071 C 
HETATM    2  N   UNL     1       5.170   8.053  18.406  0.00  0.00    -0.178 NA
HETATM    3  N   UNL     1       6.127   7.448  19.123  0.00  0.00    -0.277 N 
HETATM    4  H   UNL     1       7.077   7.471  18.770  0.00  0.00     0.189 HD
HETATM    5  C   UNL     1       4.312   7.099  20.306  0.00  0.00     0.020 C 
HETATM    6  C   UNL     1       5.694   6.936  20.313  0.00  0.00     0.065 C 
HETATM    7  C   UNL     1       3.564   6.598  21.396  0.00  0.00     0.035 C 
HETATM    8  C   UNL     1       4.248   6.015  22.482  0.00  0.00     0.066 C 
HETATM    9  C   UNL     1       5.651   6.008  22.498  0.00  0.00     0.083 C 
HETATM   10  C   UNL     1       6.401   6.398  21.389  0.00  0.00     0.069 C 
ENDROOT
BRANCH   8  11
HETATM   11  C   UNL     1       3.508   5.458  23.653  0.00  0.00     0.260 C 
HETATM   12  O   UNL     1       3.409   4.227  23.678  0.00  0.00    -0.267 OA
HETATM   13  N   UNL     1       3.016   6.295  24.675  0.00  0.00    -0.318 N 
HETATM   14  C   UNL     1       2.573   5.656  25.915  0.00  0.00     0.159 C 
BRANCH  13  15
HETATM   15  C   UNL     1       2.776   7.700  24.557  0.00  0.00     0.037 A 
HETATM   16  C   UNL     1       3.793   8.576  24.147  0.00  0.00     0.031 A 
HETATM   17  C   UNL     1       3.589   9.962  24.117  0.00  0.00     0.026 A 
HETATM   18  C   UNL     1       2.340  10.484  24.451  0.00  0.00     0.034 A 
HETATM   19 CL   UNL     1       2.104  12.180  24.441  0.00  0.00    -0.084 Cl
HETATM   20  C   UNL     1       1.297   9.624  24.783  0.00  0.00     0.026 A 
HETATM   21  C   UNL     1       1.511   8.234  24.823  0.00  0.00     0.031 A 
ENDBRANCH  13  15
ENDBRANCH   8  11
BRANCH   9  22
HETATM   22  O   UNL     1       6.377   5.661  23.609  0.00  0.00    -0.360 OA
HETATM   23  H   UNL     1       6.894   4.860  23.369  0.00  0.00     0.217 HD
ENDBRANCH   9  22
BRANCH   1  24
HETATM   24  C   UNL     1       2.782   8.540  18.712  0.00  0.00     0.100 C 
BRANCH  24  25
HETATM   25  C   UNL     1       1.968   7.573  17.889  0.00  0.00    -0.052 A 
HETATM   26  C   UNL     1       1.106   6.668  18.527  0.00  0.00     0.014 A 
HETATM   27  C   UNL     1       0.387   5.718  17.793  0.00  0.00    -0.061 A 
HETATM   28  C   UNL     1      -0.417   4.665  18.494  0.00  0.00     0.048 C 
HETATM   29  C   UNL     1       0.494   5.708  16.398  0.00  0.00     0.007 A 
HETATM   30  C   UNL     1       1.294   6.644  15.746  0.00  0.00     0.001 A 
HETATM   31  C   UNL     1       2.025   7.572  16.488  0.00  0.00     0.007 A 
ENDBRANCH  24  25
ENDBRANCH   1  24
TORSDOF 5
ENDMDL
MODEL 3
REMARK VINA RESULT:    -8.262      0.665      1.535
REMARK INTER + INTRA:         -11.709
REMARK INTER:                  -9.266
REMARK INTRA:                  -2.444
REMARK UNBOUND:                -1.273
REMARK  5 active torsions:
REMARK  status: ('A' for Active; 'I' for Inactive)
REMARK    1  A    between atoms: C_7  and  C_8 
REMARK    2  A    between atoms: C_8  and  C_9 
REMARK    3  A    between atoms: C_16  and  C_20 
REMARK    4  A    between atoms: C_17  and  O_19 
REMARK       I    between atoms: C_20  and  N_22 
REMARK    5  A    between atoms: N_22  and  C_24 
ROOT
HETATM    1  C   UNL     1       1.384   5.064  16.332  0.00  0.00     0.071 C 
HETATM    2  N   UNL     1       0.191   5.583  15.995  0.00  0.00    -0.178 NA
HETATM    3  N   UNL     1       0.227   6.829  16.486  0.00  0.00    -0.277 N 
HETATM    4  H   UNL     1      -0.584   7.422  16.350  0.00  0.00     0.189 HD
HETATM    5  C   UNL     1       2.187   6.010  17.040  0.00  0.00     0.020 C 
HETATM    6  C   UNL     1       1.357   7.116  17.199  0.00  0.00     0.065 C 
HETATM    7  C   UNL     1       3.475   6.040  17.620  0.00  0.00     0.035 C 
HETATM    8  C   UNL     1       3.850   7.157  18.395  0.00  0.00     0.066 C 
HETATM    9  C   UNL     1       2.918   8.177  18.639  0.00  0.00     0.083 C 
HETATM   10  C   UNL     1       1.684   8.217  17.991  0.00  0.00     0.069 C 
ENDROOT
BRANCH   8  11
HETATM   11  C   UNL     1       5.203   7.247  19.019  0.00  0.00     0.260 C 
HETATM   12  O   UNL     1       6.041   7.883  18.371  0.00  0.00    -0.267 OA
HETATM   13  N   UNL     1       5.465   6.687  20.285  0.00  0.00    -0.318 N 
HETATM   14  C   UNL     1       6.712   7.072  20.948  0.00  0.00     0.159 C 
BRANCH  13  15
HETATM   15  C   UNL     1       4.691   5.665  20.920  0.00  0.00     0.037 A 
HETATM   16  C   UNL     1       3.555   5.983  21.678  0.00  0.00     0.031 A 
HETATM   17  C   UNL     1       2.847   4.994  22.375  0.00  0.00     0.026 A 
HETATM   18  C   UNL     1       3.244   3.662  22.277  0.00  0.00     0.034 A 
HETATM   19 CL   UNL     1       2.393   2.461  23.155  0.00  0.00    -0.084 Cl
HETATM   20  C   UNL     1       4.322   3.319  21.466  0.00  0.00     0.026 A 
HETATM   21  C   UNL     1       5.036   4.316  20.778  0.00  0.00     0.031 A 
ENDBRANCH  13  15
ENDBRANCH   8  11
BRANCH   9  22
HETATM   22  O   UNL     1       3.136   9.175  19.555  0.00  0.00    -0.360 OA
HETATM   23  H   UNL     1       4.110   9.281  19.631  0.00  0.00     0.217 HD
ENDBRANCH   9  22
BRANCH   1  24
HETATM   24  C   UNL     1       1.648   3.608  16.093  0.00  0.00     0.100 C 
BRANCH  24  25
HETATM   25  C   UNL     1       1.603   2.896  17.421  0.00  0.00    -0.052 A 
HETATM   26  C   UNL     1       2.696   2.117  17.832  0.00  0.00     0.014 A 
HETATM   27  C   UNL     1       2.656   1.395  19.032  0.00  0.00    -0.061 A 
HETATM   28  C   UNL     1       3.768   0.456  19.390  0.00  0.00     0.048 C 
HETATM   29  C   UNL     1       1.528   1.495  19.852  0.00  0.00     0.007 A 
HETATM   30  C   UNL     1       0.463   2.317  19.489  0.00  0.00     0.001 A 
HETATM   31  C   UNL     1       0.501   3.014  18.281  0.00  0.00     0.007 A 
ENDBRANCH  24  25
ENDBRANCH   1  24
TORSDOF 5
ENDMDL
MODEL 4
REMARK VINA RESULT:    -8.103      3.198      6.767
REMARK INTER + INTRA:         -11.509
REMARK INTER:                 -10.127
REMARK INTRA:                  -1.382
REMARK UNBOUND:                -1.273
REMARK  5 active torsions:
REMARK  status: ('A' for Active; 'I' for Inactive)
REMARK    1  A    between atoms: C_7  and  C_8 
REMARK    2  A    between atoms: C_8  and  C_9 
REMARK    3  A    between atoms: C_16  and  C_20 
REMARK    4  A    between atoms: C_17  and  O_19 
REMARK       I    between atoms: C_20  and  N_22 
REMARK    5  A    between atoms: N_22  and  C_24 
ROOT
HETATM    1  C   UNL     1       4.472   7.021  23.095  0.00  0.00     0.071 C 
HETATM    2  N   UNL     1       5.671   6.565  23.495  0.00  0.00    -0.178 NA
HETATM    3  N   UNL     1       6.366   6.429  22.357  0.00  0.00    -0.277 N 
HETATM    4  H   UNL     1       7.318   6.088  22.415  0.00  0.00     0.189 HD
HETATM    5  C   UNL     1       4.421   7.185  21.676  0.00  0.00     0.020 C 
HETATM    6  C   UNL     1       5.646   6.699  21.228  0.00  0.00     0.065 C 
HETATM    7  C   UNL     1       3.472   7.616  20.721  0.00  0.00     0.035 C 
HETATM    8  C   UNL     1       3.770   7.474  19.350  0.00  0.00     0.066 C 
HETATM    9  C   UNL     1       4.961   6.844  18.959  0.00  0.00     0.083 C 
HETATM   10  C   UNL     1       5.954   6.511  19.880  0.00  0.00     0.069 C 
ENDROOT
BRANCH   8  11
HETATM   11  C   UNL     1       2.810   7.924  18.299  0.00  0.00     0.260 C 
HETATM   12  O   UNL     1       2.827   9.135  18.053  0.00  0.00    -0.267 OA
HETATM   13  N   UNL     1       1.993   7.006  17.610  0.00  0.00    -0.318 N 
HETATM   14  C   UNL     1       1.308   7.482  16.407  0.00  0.00     0.159 C 
BRANCH  13  15
HETATM   15  C   UNL     1       1.658   5.690  18.060  0.00  0.00     0.037 A 
HETATM   16  C   UNL     1       0.608   5.481  18.967  0.00  0.00     0.031 A 
HETATM   17  C   UNL     1       0.334   4.206  19.479  0.00  0.00     0.026 A 
HETATM   18  C   UNL     1       1.083   3.112  19.046  0.00  0.00     0.034 A 
HETATM   19 CL   UNL     1       0.764   1.560  19.698  0.00  0.00    -0.084 Cl
HETATM   20  C   UNL     1       2.076   3.289  18.088  0.00  0.00     0.026 A 
HETATM   21  C   UNL     1       2.355   4.573  17.585  0.00  0.00     0.031 A 
ENDBRANCH  13  15
ENDBRANCH   8  11
BRANCH   9  22
HETATM   22  O   UNL     1       5.213   6.477  17.662  0.00  0.00    -0.360 OA
HETATM   23  H   UNL     1       6.187   6.367  17.584  0.00  0.00     0.217 HD
ENDBRANCH   9  22
BRANCH   1  24
HETATM   24  C   UNL     1       3.357   7.137  24.090  0.00  0.00     0.100 C 
BRANCH  24  25
HETATM   25  C   UNL     1       2.986   8.593  24.215  0.00  0.00    -0.052 A 
HETATM   26  C   UNL     1       1.738   8.952  24.748  0.00  0.00     0.014 A 
HETATM   27  C   UNL     1       1.343  10.293  24.817  0.00  0.00    -0.061 A 
HETATM   28  C   UNL     1      -0.045  10.654  25.253  0.00  0.00     0.048 C 
HETATM   29  C   UNL     1       2.228  11.289  24.393  0.00  0.00     0.007 A 
HETATM   30  C   UNL     1       3.496  10.952  23.923  0.00  0.00     0.001 A 
HETATM   31  C   UNL     1       3.873   9.612  23.836  0.00  0.00     0.007 A 
ENDBRANCH  24  25
ENDBRANCH   1  24
TORSDOF 5
ENDMDL
MODEL 5
REMARK VINA RESULT:    -7.794      3.205      5.428
REMARK INTER + INTRA:         -11.117
REMARK INTER:                  -9.339
REMARK INTRA:                  -1.779
REMARK UNBOUND:                -1.273
REMARK  5 active torsions:
REMARK  status: ('A' for Active; 'I' for Inactive)
REMARK    1  A    between atoms: C_7  and  C_8 
REMARK    2  A    between atoms: C_8  and  C_9 
REMARK    3  A    between atoms: C_16  and  C_20 
REMARK    4  A    between atoms: C_17  and  O_19 
REMARK       I    between atoms: C_20  and  N_22 
REMARK    5  A    between atoms: N_22  and  C_24 
ROOT
HETATM    1  C   UNL     1       0.981   3.652  19.472  0.00  0.00     0.071 C 
HETATM    2  N   UNL     1       1.255   2.554  18.749  0.00  0.00    -0.178 NA
HETATM    3  N   UNL     1       2.275   1.979  19.402  0.00  0.00    -0.277 N 
HETATM    4  H   UNL     1       2.658   1.118  19.030  0.00  0.00     0.189 HD
HETATM    5  C   UNL     1       1.840   3.760  20.609  0.00  0.00     0.020 C 
HETATM    6  C   UNL     1       2.728   2.698  20.472  0.00  0.00     0.065 C 
HETATM    7  C   UNL     1       2.015   4.657  21.687  0.00  0.00     0.035 C 
HETATM    8  C   UNL     1       3.122   4.486  22.544  0.00  0.00     0.066 C 
HETATM    9  C   UNL     1       4.064   3.483  22.271  0.00  0.00     0.083 C 
HETATM   10  C   UNL     1       3.852   2.524  21.280  0.00  0.00     0.069 C 
ENDROOT
BRANCH   8  11
HETATM   11  C   UNL     1       3.349   5.395  23.706  0.00  0.00     0.260 C 
HETATM   12  O   UNL     1       2.635   5.179  24.691  0.00  0.00    -0.267 OA
HETATM   13  N   UNL     1       4.351   6.385  23.678  0.00  0.00    -0.318 N 
HETATM   14  C   UNL     1       4.703   7.025  24.946  0.00  0.00     0.159 C 
BRANCH  13  15
HETATM   15  C   UNL     1       4.956   6.923  22.499  0.00  0.00     0.037 A 
HETATM   16  C   UNL     1       6.197   6.454  22.043  0.00  0.00     0.031 A 
HETATM   17  C   UNL     1       6.835   7.040  20.942  0.00  0.00     0.026 A 
HETATM   18  C   UNL     1       6.208   8.076  20.251  0.00  0.00     0.034 A 
HETATM   19 CL   UNL     1       7.005   8.809  18.923  0.00  0.00    -0.084 Cl
HETATM   20  C   UNL     1       4.942   8.501  20.641  0.00  0.00     0.026 A 
HETATM   21  C   UNL     1       4.310   7.917  21.754  0.00  0.00     0.031 A 
ENDBRANCH  13  15
ENDBRANCH   8  11
BRANCH   9  22
HETATM   22  O   UNL     1       5.267   3.399  22.925  0.00  0.00    -0.360 OA
HETATM   23  H   UNL     1       5.565   4.321  23.088  0.00  0.00     0.217 HD
ENDBRANCH   9  22
BRANCH   1  24
HETATM   24  C   UNL     1      -0.008   4.651  18.949  0.00  0.00     0.100 C 
BRANCH  24  25
HETATM   25  C   UNL     1       0.713   5.577  18.003  0.00  0.00    -0.052 A 
HETATM   26  C   UNL     1       1.248   6.784  18.480  0.00  0.00     0.014 A 
HETATM   27  C   UNL     1       1.866   7.691  17.611  0.00  0.00    -0.061 A 
HETATM   28  C   UNL     1       2.304   9.037  18.104  0.00  0.00     0.048 C 
HETATM   29  C   UNL     1       1.995   7.362  16.258  0.00  0.00     0.007 A 
HETATM   30  C   UNL     1       1.528   6.138  15.783  0.00  0.00     0.001 A 
HETATM   31  C   UNL     1       0.893   5.251  16.650  0.00  0.00     0.007 A 
ENDBRANCH  24  25
ENDBRANCH   1  24
TORSDOF 5
ENDMDL
MODEL 6
REMARK VINA RESULT:    -7.714      3.526      6.119
REMARK INTER + INTRA:         -11.017
REMARK INTER:                  -8.779
REMARK INTRA:                  -2.238
REMARK UNBOUND:                -1.273
REMARK  5 active torsions:
REMARK  status: ('A' for Active; 'I' for Inactive)
REMARK    1  A    between atoms: C_7  and  C_8 
REMARK    2  A    between atoms: C_8  and  C_9 
REMARK    3  A    between atoms: C_16  and  C_20 
REMARK    4  A    between atoms: C_17  and  O_19 
REMARK       I    between atoms: C_20  and  N_22 
REMARK    5  A    between atoms: N_22  and  C_24 
ROOT
HETATM    1  C   UNL     1       4.557   8.076  21.989  0.00  0.00     0.071 C 
HETATM    2  N   UNL     1       3.775   9.015  22.548  0.00  0.00    -0.178 NA
HETATM    3  N   UNL     1       3.077   8.348  23.477  0.00  0.00    -0.277 N 
HETATM    4  H   UNL     1       2.407   8.864  24.035  0.00  0.00     0.189 HD
HETATM    5  C   UNL     1       4.352   6.796  22.590  0.00  0.00     0.020 C 
HETATM    6  C   UNL     1       3.312   7.002  23.492  0.00  0.00     0.065 C 
HETATM    7  C   UNL     1       4.866   5.489  22.434  0.00  0.00     0.035 C 
HETATM    8  C   UNL     1       4.264   4.430  23.143  0.00  0.00     0.066 C 
HETATM    9  C   UNL     1       3.127   4.675  23.926  0.00  0.00     0.083 C 
HETATM   10  C   UNL     1       2.671   5.969  24.177  0.00  0.00     0.069 C 
ENDROOT
BRANCH   8  11
HETATM   11  C   UNL     1       4.775   3.032  23.026  0.00  0.00     0.260 C 
HETATM   12  O   UNL     1       5.674   2.731  23.818  0.00  0.00    -0.267 OA
HETATM   13  N   UNL     1       4.216   2.121  22.107  0.00  0.00    -0.318 N 
HETATM   14  C   UNL     1       4.565   0.708  22.261  0.00  0.00     0.159 C 
BRANCH  13  15
HETATM   15  C   UNL     1       3.451   2.470  20.950  0.00  0.00     0.037 A 
HETATM   16  C   UNL     1       4.064   2.624  19.697  0.00  0.00     0.031 A 
HETATM   17  C   UNL     1       3.335   3.054  18.580  0.00  0.00     0.026 A 
HETATM   18  C   UNL     1       1.965   3.287  18.697  0.00  0.00     0.034 A 
HETATM   19 CL   UNL     1       1.085   3.841  17.336  0.00  0.00    -0.084 Cl
HETATM   20  C   UNL     1       1.327   3.063  19.913  0.00  0.00     0.026 A 
HETATM   21  C   UNL     1       2.065   2.643  21.034  0.00  0.00     0.031 A 
ENDBRANCH  13  15
ENDBRANCH   8  11
BRANCH   9  22
HETATM   22  O   UNL     1       2.365   3.668  24.462  0.00  0.00    -0.360 OA
HETATM   23  H   UNL     1       2.297   3.848  25.426  0.00  0.00     0.217 HD
ENDBRANCH   9  22
BRANCH   1  24
HETATM   24  C   UNL     1       5.370   8.420  20.777  0.00  0.00     0.100 C 
BRANCH  24  25
HETATM   25  C   UNL     1       4.706   7.802  19.573  0.00  0.00    -0.052 A 
HETATM   26  C   UNL     1       3.561   8.400  19.024  0.00  0.00     0.014 A 
HETATM   27  C   UNL     1       2.888   7.813  17.946  0.00  0.00    -0.061 A 
HETATM   28  C   UNL     1       1.589   8.381  17.462  0.00  0.00     0.048 C 
HETATM   29  C   UNL     1       3.398   6.640  17.379  0.00  0.00     0.007 A 
HETATM   30  C   UNL     1       4.571   6.072  17.871  0.00  0.00     0.001 A 
HETATM   31  C   UNL     1       5.222   6.651  18.960  0.00  0.00     0.007 A 
ENDBRANCH  24  25
ENDBRANCH   1  24
TORSDOF 5
ENDMDL
MODEL 7
REMARK VINA RESULT:    -7.696      2.640      5.215
REMARK INTER + INTRA:         -10.995
REMARK INTER:                  -9.185
REMARK INTRA:                  -1.810
REMARK UNBOUND:                -1.273
REMARK  5 active torsions:
REMARK  status: ('A' for Active; 'I' for Inactive)
REMARK    1  A    between atoms: C_7  and  C_8 
REMARK    2  A    between atoms: C_8  and  C_9 
REMARK    3  A    between atoms: C_16  and  C_20 
REMARK    4  A    between atoms: C_17  and  O_19 
REMARK       I    between atoms: C_20  and  N_22 
REMARK    5  A    between atoms: N_22  and  C_24 
ROOT
HETATM    1  C   UNL     1       3.468   7.931  18.425  0.00  0.00     0.071 C 
HETATM    2  N   UNL     1       2.739   9.059  18.385  0.00  0.00    -0.178 NA
HETATM    3  N   UNL     1       1.557   8.667  17.891  0.00  0.00    -0.277 N 
HETATM    4  H   UNL     1       0.834   9.366  17.768  0.00  0.00     0.189 HD
HETATM    5  C   UNL     1       2.719   6.807  17.958  0.00  0.00     0.020 C 
HETATM    6  C   UNL     1       1.510   7.350  17.534  0.00  0.00     0.065 C 
HETATM    7  C   UNL     1       2.941   5.422  17.781  0.00  0.00     0.035 C 
HETATM    8  C   UNL     1       1.961   4.653  17.119  0.00  0.00     0.066 C 
HETATM    9  C   UNL     1       0.827   5.283  16.585  0.00  0.00     0.083 C 
HETATM   10  C   UNL     1       0.540   6.623  16.842  0.00  0.00     0.069 C 
ENDROOT
BRANCH   8  11
HETATM   11  C   UNL     1       2.137   3.185  16.916  0.00  0.00     0.260 C 
HETATM   12  O   UNL     1       1.735   2.751  15.832  0.00  0.00    -0.267 OA
HETATM   13  N   UNL     1       2.772   2.381  17.885  0.00  0.00    -0.318 N 
HETATM   14  C   UNL     1       3.165   1.029  17.486  0.00  0.00     0.159 C 
BRANCH  13  15
HETATM   15  C   UNL     1       2.937   2.716  19.265  0.00  0.00     0.037 A 
HETATM   16  C   UNL     1       1.852   2.677  20.154  0.00  0.00     0.031 A 
HETATM   17  C   UNL     1       1.989   3.091  21.486  0.00  0.00     0.026 A 
HETATM   18  C   UNL     1       3.235   3.503  21.956  0.00  0.00     0.034 A 
HETATM   19 CL   UNL     1       3.391   4.036  23.577  0.00  0.00    -0.084 Cl
HETATM   20  C   UNL     1       4.339   3.473  21.110  0.00  0.00     0.026 A 
HETATM   21  C   UNL     1       4.193   3.067  19.770  0.00  0.00     0.031 A 
ENDBRANCH  13  15
ENDBRANCH   8  11
BRANCH   9  22
HETATM   22  O   UNL     1      -0.050   4.642  15.747  0.00  0.00    -0.360 OA
HETATM   23  H   UNL     1       0.127   4.981  14.841  0.00  0.00     0.217 HD
ENDBRANCH   9  22
BRANCH   1  24
HETATM   24  C   UNL     1       4.925   8.005  18.770  0.00  0.00     0.100 C 
BRANCH  24  25
HETATM   25  C   UNL     1       5.097   7.528  20.190  0.00  0.00    -0.052 A 
HETATM   26  C   UNL     1       4.114   7.819  21.148  0.00  0.00     0.014 A 
HETATM   27  C   UNL     1       4.278   7.443  22.487  0.00  0.00    -0.061 A 
HETATM   28  C   UNL     1       3.292   7.883  23.526  0.00  0.00     0.048 C 
HETATM   29  C   UNL     1       5.419   6.724  22.860  0.00  0.00     0.007 A 
HETATM   30  C   UNL     1       6.372   6.371  21.906  0.00  0.00     0.001 A 
HETATM   31  C   UNL     1       6.211   6.769  20.579  0.00  0.00     0.007 A 
ENDBRANCH  24  25
ENDBRANCH   1  24
TORSDOF 5
ENDMDL
MODEL 8
REMARK VINA RESULT:    -7.658      2.895      4.934
REMARK INTER + INTRA:         -10.947
REMARK INTER:                  -8.523
REMARK INTRA:                  -2.424
REMARK UNBOUND:                -1.273
REMARK  5 active torsions:
REMARK  status: ('A' for Active; 'I' for Inactive)
REMARK    1  A    between atoms: C_7  and  C_8 
REMARK    2  A    between atoms: C_8  and  C_9 
REMARK    3  A    between atoms: C_16  and  C_20 
REMARK    4  A    between atoms: C_17  and  O_19 
REMARK       I    between atoms: C_20  and  N_22 
REMARK    5  A    between atoms: N_22  and  C_24 
ROOT
HETATM    1  C   UNL     1       4.122   7.861  19.183  0.00  0.00     0.071 C 
HETATM    2  N   UNL     1       5.199   8.520  18.721  0.00  0.00    -0.178 NA
HETATM    3  N   UNL     1       6.212   8.046  19.459  0.00  0.00    -0.277 N 
HETATM    4  H   UNL     1       7.142   8.409  19.284  0.00  0.00     0.189 HD
HETATM    5  C   UNL     1       4.473   6.947  20.224  0.00  0.00     0.020 C 
HETATM    6  C   UNL     1       5.830   7.169  20.434  0.00  0.00     0.065 C 
HETATM    7  C   UNL     1       3.800   6.020  21.051  0.00  0.00     0.035 C 
HETATM    8  C   UNL     1       4.509   5.404  22.103  0.00  0.00     0.066 C 
HETATM    9  C   UNL     1       5.838   5.775  22.357  0.00  0.00     0.083 C 
HETATM   10  C   UNL     1       6.549   6.605  21.489  0.00  0.00     0.069 C 
ENDROOT
BRANCH   8  11
HETATM   11  C   UNL     1       3.852   4.407  23.000  0.00  0.00     0.260 C 
HETATM   12  O   UNL     1       3.869   4.689  24.203  0.00  0.00    -0.267 OA
HETATM   13  N   UNL     1       3.215   3.262  22.481  0.00  0.00    -0.318 N 
HETATM   14  C   UNL     1       2.352   2.503  23.386  0.00  0.00     0.159 C 
BRANCH  13  15
HETATM   15  C   UNL     1       3.449   2.693  21.190  0.00  0.00     0.037 A 
HETATM   16  C   UNL     1       4.624   1.975  20.918  0.00  0.00     0.031 A 
HETATM   17  C   UNL     1       4.899   1.494  19.631  0.00  0.00     0.026 A 
HETATM   18  C   UNL     1       3.969   1.684  18.609  0.00  0.00     0.034 A 
HETATM   19 CL   UNL     1       4.323   1.119  17.031  0.00  0.00    -0.084 Cl
HETATM   20  C   UNL     1       2.764   2.324  18.880  0.00  0.00     0.026 A 
HETATM   21  C   UNL     1       2.498   2.816  20.171  0.00  0.00     0.031 A 
ENDBRANCH  13  15
ENDBRANCH   8  11
BRANCH   9  22
HETATM   22  O   UNL     1       6.514   5.386  23.485  0.00  0.00    -0.360 OA
HETATM   23  H   UNL     1       6.743   4.437  23.364  0.00  0.00     0.217 HD
ENDBRANCH   9  22
BRANCH   1  24
HETATM   24  C   UNL     1       2.757   8.254  18.705  0.00  0.00     0.100 C 
BRANCH  24  25
HETATM   25  C   UNL     1       2.134   7.061  18.025  0.00  0.00    -0.052 A 
HETATM   26  C   UNL     1       1.038   6.413  18.618  0.00  0.00     0.014 A 
HETATM   27  C   UNL     1       0.481   5.266  18.041  0.00  0.00    -0.061 A 
HETATM   28  C   UNL     1      -0.592   4.502  18.755  0.00  0.00     0.048 C 
HETATM   29  C   UNL     1       0.996   4.791  16.830  0.00  0.00     0.007 A 
HETATM   30  C   UNL     1       2.040   5.462  16.197  0.00  0.00     0.001 A 
HETATM   31  C   UNL     1       2.604   6.591  16.790  0.00  0.00     0.007 A 
ENDBRANCH  24  25
ENDBRANCH   1  24
TORSDOF 5
ENDMDL
MODEL 9
REMARK VINA RESULT:    -7.595      5.210      8.239
REMARK INTER + INTRA:         -10.867
REMARK INTER:                  -9.593
REMARK INTRA:                  -1.273
REMARK UNBOUND:                -1.273
REMARK  5 active torsions:
REMARK  status: ('A' for Active; 'I' for Inactive)
REMARK    1  A    between atoms: C_7  and  C_8 
REMARK    2  A    between atoms: C_8  and  C_9 
REMARK    3  A    between atoms: C_16  and  C_20 
REMARK    4  A    between atoms: C_17  and  O_19 
REMARK       I    between atoms: C_20  and  N_22 
REMARK    5  A    between atoms: N_22  and  C_24 
ROOT
HETATM    1  C   UNL     1       1.647   8.166  25.879  0.00  0.00     0.071 C 
HETATM    2  N   UNL     1       2.347   8.641  26.924  0.00  0.00    -0.178 NA
HETATM    3  N   UNL     1       3.519   7.995  26.853  0.00  0.00    -0.277 N 
HETATM    4  H   UNL     1       4.220   8.195  27.556  0.00  0.00     0.189 HD
HETATM    5  C   UNL     1       2.404   7.212  25.132  0.00  0.00     0.020 C 
HETATM    6  C   UNL     1       3.583   7.062  25.856  0.00  0.00     0.065 C 
HETATM    7  C   UNL     1       2.208   6.414  23.982  0.00  0.00     0.035 C 
HETATM    8  C   UNL     1       3.180   5.448  23.648  0.00  0.00     0.066 C 
HETATM    9  C   UNL     1       4.278   5.243  24.497  0.00  0.00     0.083 C 
HETATM   10  C   UNL     1       4.543   6.090  25.574  0.00  0.00     0.069 C 
ENDROOT
BRANCH   8  11
HETATM   11  C   UNL     1       3.031   4.587  22.437  0.00  0.00     0.260 C 
HETATM   12  O   UNL     1       2.475   3.500  22.629  0.00  0.00    -0.267 OA
HETATM   13  N   UNL     1       3.452   5.029  21.167  0.00  0.00    -0.318 N 
HETATM   14  C   UNL     1       3.005   4.260  20.004  0.00  0.00     0.159 C 
BRANCH  13  15
HETATM   15  C   UNL     1       4.393   6.076  20.920  0.00  0.00     0.037 A 
HETATM   16  C   UNL     1       3.966   7.381  20.634  0.00  0.00     0.031 A 
HETATM   17  C   UNL     1       4.881   8.389  20.303  0.00  0.00     0.026 A 
HETATM   18  C   UNL     1       6.247   8.110  20.304  0.00  0.00     0.034 A 
HETATM   19 CL   UNL     1       7.360   9.337  19.870  0.00  0.00    -0.084 Cl
HETATM   20  C   UNL     1       6.693   6.841  20.662  0.00  0.00     0.026 A 
HETATM   21  C   UNL     1       5.769   5.830  20.983  0.00  0.00     0.031 A 
ENDBRANCH  13  15
ENDBRANCH   8  11
BRANCH   9  22
HETATM   22  O   UNL     1       5.137   4.184  24.355  0.00  0.00    -0.360 OA
HETATM   23  H   UNL     1       5.952   4.412  24.856  0.00  0.00     0.217 HD
ENDBRANCH   9  22
BRANCH   1  24
HETATM   24  C   UNL     1       0.204   8.539  25.728  0.00  0.00     0.100 C 
BRANCH  24  25
HETATM   25  C   UNL     1       0.133   9.892  25.064  0.00  0.00    -0.052 A 
HETATM   26  C   UNL     1      -1.096  10.372  24.587  0.00  0.00     0.014 A 
HETATM   27  C   UNL     1      -1.178  11.595  23.911  0.00  0.00    -0.061 A 
HETATM   28  C   UNL     1      -2.467  12.029  23.280  0.00  0.00     0.048 C 
HETATM   29  C   UNL     1      -0.024  12.369  23.756  0.00  0.00     0.007 A 
HETATM   30  C   UNL     1       1.191  11.937  24.283  0.00  0.00     0.001 A 
HETATM   31  C   UNL     1       1.268  10.706  24.935  0.00  0.00     0.007 A 
ENDBRANCH  24  25
ENDBRANCH   1  24
TORSDOF 5
ENDMDL
