MODEL 1
REMARK VINA RESULT:    -7.058      0.000      0.000
REMARK INTER + INTRA:          -9.178
REMARK INTER:                  -8.300
REMARK INTRA:                  -0.878
REMARK UNBOUND:                -0.882
REMARK  4 active torsions:
REMARK  status: ('A' for Active; 'I' for Inactive)
REMARK    1  A    between atoms: O_1  and  C_2 
REMARK    2  A    between atoms: C_4  and  O_5 
REMARK    3  A    between atoms: C_6  and  C_7 
REMARK    4  A    between atoms: N_11  and  C_12 
ROOT
HETATM    1  C   UNL     1       8.138  13.303  24.035  0.00  0.00     0.073 C 
HETATM    2  C   UNL     1       9.341  13.117  24.706  0.00  0.00     0.053 C 
HETATM    3  C   UNL     1       9.367  14.054  25.738  0.00  0.00     0.141 C 
HETATM    4  N   UNL     1       8.294  14.833  25.735  0.00  0.00    -0.179 NA
HETATM    5  N   UNL     1       7.476  14.300  24.777  0.00  0.00    -0.230 N 
ENDROOT
BRANCH   1   6
HETATM    6  C   UNL     1       7.686  12.634  22.789  0.00  0.00     0.027 C 
HETATM    7  C   UNL     1       8.220  12.962  21.526  0.00  0.00     0.081 C 
HETATM    8  C   UNL     1       7.884  12.244  20.375  0.00  0.00     0.075 C 
HETATM    9  C   UNL     1       7.005  11.167  20.468  0.00  0.00     0.085 C 
HETATM   10  C   UNL     1       6.396  10.872  21.686  0.00  0.00     0.040 C 
HETATM   11  C   UNL     1       6.693  11.637  22.822  0.00  0.00     0.037 C 
HETATM   12  I   UNL     1       5.102   9.243  21.910  0.00  0.00    -0.042 I 
BRANCH   7  13
HETATM   13  O   UNL     1       9.102  14.004  21.397  0.00  0.00    -0.360 OA
HETATM   14  H   UNL     1       9.457  14.019  20.494  0.00  0.00     0.217 HD
ENDBRANCH   7  13
BRANCH   9  15
HETATM   15  O   UNL     1       6.748  10.407  19.362  0.00  0.00    -0.359 OA
HETATM   16  H   UNL     1       5.987   9.828  19.533  0.00  0.00     0.217 HD
ENDBRANCH   9  15
ENDBRANCH   1   6
BRANCH   5  17
HETATM   17  C   UNL     1       6.172  14.853  24.654  0.00  0.00     0.097 A 
HETATM   18  C   UNL     1       5.273  14.714  25.729  0.00  0.00     0.035 A 
HETATM   19  C   UNL     1       4.024  15.339  25.694  0.00  0.00     0.002 A 
HETATM   20  C   UNL     1       3.650  16.088  24.580  0.00  0.00     0.003 A 
HETATM   21  C   UNL     1       4.505  16.169  23.481  0.00  0.00     0.045 A 
HETATM   22  C   UNL     1       5.744  15.528  23.511  0.00  0.00     0.145 A 
HETATM   23  F   UNL     1       6.486  15.557  22.394  0.00  0.00    -0.204 F 
ENDBRANCH   5  17
TORSDOF 4
ENDMDL
MODEL 2
REMARK VINA RESULT:    -6.980      1.807      2.094
REMARK INTER + INTRA:          -9.087
REMARK INTER:                  -8.163
REMARK INTRA:                  -0.924
REMARK UNBOUND:                -0.882
REMARK  4 active torsions:
REMARK  status: ('A' for Active; 'I' for Inactive)
REMARK    1  A    between atoms: O_1  and  C_2 
REMARK    2  A    between atoms: C_4  and  O_5 
REMARK    3  A    between atoms: C_6  and  C_7 
REMARK    4  A    between atoms: N_11  and  C_12 
ROOT
HETATM    1  C   UNL     1       8.225  13.444  24.773  0.00  0.00     0.073 C 
HETATM    2  C   UNL     1       9.370  13.405  25.560  0.00  0.00     0.053 C 
HETATM    3  C   UNL     1       9.273  14.471  26.454  0.00  0.00     0.141 C 
HETATM    4  N   UNL     1       8.177  15.192  26.256  0.00  0.00    -0.179 NA
HETATM    5  N   UNL     1       7.465  14.498  25.317  0.00  0.00    -0.230 N 
ENDROOT
BRANCH   1   6
HETATM    6  C   UNL     1       7.907  12.595  23.598  0.00  0.00     0.027 C 
HETATM    7  C   UNL     1       7.005  11.515  23.677  0.00  0.00     0.081 C 
HETATM    8  C   UNL     1       6.613  10.798  22.543  0.00  0.00     0.075 C 
HETATM    9  C   UNL     1       7.113  11.159  21.294  0.00  0.00     0.085 C 
HETATM   10  C   UNL     1       8.071  12.166  21.195  0.00  0.00     0.040 C 
HETATM   11  C   UNL     1       8.503  12.837  22.347  0.00  0.00     0.037 C 
HETATM   12  I   UNL     1       8.833  12.790  19.349  0.00  0.00    -0.042 I 
BRANCH   7  13
HETATM   13  O   UNL     1       6.476  11.141  24.885  0.00  0.00    -0.360 OA
HETATM   14  H   UNL     1       5.607  10.732  24.748  0.00  0.00     0.217 HD
ENDBRANCH   7  13
BRANCH   9  15
HETATM   15  O   UNL     1       6.659  10.520  20.174  0.00  0.00    -0.359 OA
HETATM   16  H   UNL     1       5.791  10.125  20.353  0.00  0.00     0.217 HD
ENDBRANCH   9  15
ENDBRANCH   1   6
BRANCH   5  17
HETATM   17  C   UNL     1       6.157  14.968  25.013  0.00  0.00     0.097 A 
HETATM   18  C   UNL     1       5.150  14.845  25.990  0.00  0.00     0.035 A 
HETATM   19  C   UNL     1       3.884  15.396  25.774  0.00  0.00     0.002 A 
HETATM   20  C   UNL     1       3.603  16.052  24.577  0.00  0.00     0.003 A 
HETATM   21  C   UNL     1       4.573  16.111  23.577  0.00  0.00     0.045 A 
HETATM   22  C   UNL     1       5.830  15.545  23.786  0.00  0.00     0.145 A 
HETATM   23  F   UNL     1       6.691  15.546  22.759  0.00  0.00    -0.204 F 
ENDBRANCH   5  17
TORSDOF 4
ENDMDL
MODEL 3
REMARK VINA RESULT:    -6.810      7.474      9.179
REMARK INTER + INTRA:          -8.886
REMARK INTER:                  -7.886
REMARK INTRA:                  -1.000
REMARK UNBOUND:                -0.882
REMARK  4 active torsions:
REMARK  status: ('A' for Active; 'I' for Inactive)
REMARK    1  A    between atoms: O_1  and  C_2 
REMARK    2  A    between atoms: C_4  and  O_5 
REMARK    3  A    between atoms: C_6  and  C_7 
REMARK    4  A    between atoms: N_11  and  C_12 
ROOT
HETATM    1  C   UNL     1      -1.484  11.221  24.646  0.00  0.00     0.073 C 
HETATM    2  C   UNL     1      -2.594  11.097  23.820  0.00  0.00     0.053 C 
HETATM    3  C   UNL     1      -2.578  12.202  22.968  0.00  0.00     0.141 C 
HETATM    4  N   UNL     1      -1.569  13.022  23.230  0.00  0.00    -0.179 NA
HETATM    5  N   UNL     1      -0.819  12.368  24.168  0.00  0.00    -0.230 N 
ENDROOT
BRANCH   1   6
HETATM    6  C   UNL     1      -1.117  10.363  25.801  0.00  0.00     0.027 C 
HETATM    7  C   UNL     1      -1.713  10.520  27.069  0.00  0.00     0.081 C 
HETATM    8  C   UNL     1      -1.458   9.631  28.117  0.00  0.00     0.075 C 
HETATM    9  C   UNL     1      -0.601   8.552  27.912  0.00  0.00     0.085 C 
HETATM   10  C   UNL     1       0.068   8.420  26.697  0.00  0.00     0.040 C 
HETATM   11  C   UNL     1      -0.148   9.352  25.673  0.00  0.00     0.037 C 
HETATM   12  I   UNL     1       1.334   6.801  26.303  0.00  0.00    -0.042 I 
BRANCH   7  13
HETATM   13  O   UNL     1      -2.577  11.558  27.305  0.00  0.00    -0.360 OA
HETATM   14  H   UNL     1      -3.229  11.609  26.589  0.00  0.00     0.217 HD
ENDBRANCH   7  13
BRANCH   9  15
HETATM   15  O   UNL     1      -0.424   7.631  28.906  0.00  0.00    -0.359 OA
HETATM   16  H   UNL     1       0.036   8.043  29.655  0.00  0.00     0.217 HD
ENDBRANCH   9  15
ENDBRANCH   1   6
BRANCH   5  17
HETATM   17  C   UNL     1       0.423  12.956  24.534  0.00  0.00     0.097 A 
HETATM   18  C   UNL     1       1.509  12.853  23.643  0.00  0.00     0.035 A 
HETATM   19  C   UNL     1       2.711  13.512  23.913  0.00  0.00     0.002 A 
HETATM   20  C   UNL     1       2.850  14.259  25.081  0.00  0.00     0.003 A 
HETATM   21  C   UNL     1       1.804  14.304  26.003  0.00  0.00     0.045 A 
HETATM   22  C   UNL     1       0.611  13.630  25.740  0.00  0.00     0.145 A 
HETATM   23  F   UNL     1      -0.325  13.625  26.701  0.00  0.00    -0.204 F 
ENDBRANCH   5  17
TORSDOF 4
ENDMDL
MODEL 4
REMARK VINA RESULT:    -6.657      2.269      2.896
REMARK INTER + INTRA:          -8.706
REMARK INTER:                  -7.867
REMARK INTRA:                  -0.839
REMARK UNBOUND:                -0.882
REMARK  4 active torsions:
REMARK  status: ('A' for Active; 'I' for Inactive)
REMARK    1  A    between atoms: O_1  and  C_2 
REMARK    2  A    between atoms: C_4  and  O_5 
REMARK    3  A    between atoms: C_6  and  C_7 
REMARK    4  A    between atoms: N_11  and  C_12 
ROOT
HETATM    1  C   UNL     1       7.562  13.031  23.553  0.00  0.00     0.073 C 
HETATM    2  C   UNL     1       8.936  13.022  23.346  0.00  0.00     0.053 C 
HETATM    3  C   UNL     1       9.370  14.337  23.515  0.00  0.00     0.141 C 
HETATM    4  N   UNL     1       8.367  15.167  23.769  0.00  0.00    -0.179 NA
HETATM    5  N   UNL     1       7.274  14.359  23.922  0.00  0.00    -0.230 N 
ENDROOT
BRANCH   1   6
HETATM    6  C   UNL     1       6.614  11.903  23.373  0.00  0.00     0.027 C 
HETATM    7  C   UNL     1       5.902  11.344  24.454  0.00  0.00     0.081 C 
HETATM    8  C   UNL     1       4.919  10.369  24.264  0.00  0.00     0.075 C 
HETATM    9  C   UNL     1       4.620   9.937  22.973  0.00  0.00     0.085 C 
HETATM   10  C   UNL     1       5.365  10.407  21.894  0.00  0.00     0.040 C 
HETATM   11  C   UNL     1       6.390  11.339  22.104  0.00  0.00     0.037 C 
HETATM   12  I   UNL     1       4.943   9.835  19.926  0.00  0.00    -0.042 I 
BRANCH   7  13
HETATM   13  O   UNL     1       6.153  11.757  25.737  0.00  0.00    -0.360 OA
HETATM   14  H   UNL     1       6.047  11.010  26.347  0.00  0.00     0.217 HD
ENDBRANCH   7  13
BRANCH   9  15
HETATM   15  O   UNL     1       3.596   9.052  22.777  0.00  0.00    -0.359 OA
HETATM   16  H   UNL     1       3.384   9.003  21.830  0.00  0.00     0.217 HD
ENDBRANCH   9  15
ENDBRANCH   1   6
BRANCH   5  17
HETATM   17  C   UNL     1       6.065  14.974  24.352  0.00  0.00     0.097 A 
HETATM   18  C   UNL     1       5.191  15.501  23.381  0.00  0.00     0.035 A 
HETATM   19  C   UNL     1       3.945  16.011  23.752  0.00  0.00     0.002 A 
HETATM   20  C   UNL     1       3.567  16.023  25.094  0.00  0.00     0.003 A 
HETATM   21  C   UNL     1       4.458  15.571  26.067  0.00  0.00     0.045 A 
HETATM   22  C   UNL     1       5.710  15.079  25.696  0.00  0.00     0.145 A 
HETATM   23  F   UNL     1       6.563  14.749  26.676  0.00  0.00    -0.204 F 
ENDBRANCH   5  17
TORSDOF 4
ENDMDL
MODEL 5
REMARK VINA RESULT:    -6.560      1.770      2.248
REMARK INTER + INTRA:          -8.593
REMARK INTER:                  -7.720
REMARK INTRA:                  -0.873
REMARK UNBOUND:                -0.882
REMARK  4 active torsions:
REMARK  status: ('A' for Active; 'I' for Inactive)
REMARK    1  A    between atoms: O_1  and  C_2 
REMARK    2  A    between atoms: C_4  and  O_5 
REMARK    3  A    between atoms: C_6  and  C_7 
REMARK    4  A    between atoms: N_11  and  C_12 
ROOT
HETATM    1  C   UNL     1       7.494  12.526  24.043  0.00  0.00     0.073 C 
HETATM    2  C   UNL     1       8.799  12.167  24.357  0.00  0.00     0.053 C 
HETATM    3  C   UNL     1       9.371  13.270  24.991  0.00  0.00     0.141 C 
HETATM    4  N   UNL     1       8.535  14.298  25.058  0.00  0.00    -0.179 NA
HETATM    5  N   UNL     1       7.343  13.812  24.597  0.00  0.00    -0.230 N 
ENDROOT
BRANCH   1   6
HETATM    6  C   UNL     1       6.507  11.744  23.257  0.00  0.00     0.027 C 
HETATM    7  C   UNL     1       6.441  11.819  21.851  0.00  0.00     0.081 C 
HETATM    8  C   UNL     1       5.597  10.988  21.108  0.00  0.00     0.075 C 
HETATM    9  C   UNL     1       4.803  10.050  21.764  0.00  0.00     0.085 C 
HETATM   10  C   UNL     1       4.783  10.011  23.156  0.00  0.00     0.040 C 
HETATM   11  C   UNL     1       5.587  10.890  23.894  0.00  0.00     0.037 C 
HETATM   12  I   UNL     1       3.649   8.600  24.207  0.00  0.00    -0.042 I 
BRANCH   7  13
HETATM   13  O   UNL     1       7.221  12.716  21.167  0.00  0.00    -0.360 OA
HETATM   14  H   UNL     1       6.738  13.550  21.059  0.00  0.00     0.217 HD
ENDBRANCH   7  13
BRANCH   9  15
HETATM   15  O   UNL     1       4.048   9.175  21.034  0.00  0.00    -0.359 OA
HETATM   16  H   UNL     1       3.737   9.610  20.222  0.00  0.00     0.217 HD
ENDBRANCH   9  15
ENDBRANCH   1   6
BRANCH   5  17
HETATM   17  C   UNL     1       6.211  14.667  24.693  0.00  0.00     0.097 A 
HETATM   18  C   UNL     1       5.719  15.274  23.520  0.00  0.00     0.035 A 
HETATM   19  C   UNL     1       4.544  16.028  23.553  0.00  0.00     0.002 A 
HETATM   20  C   UNL     1       3.861  16.205  24.754  0.00  0.00     0.003 A 
HETATM   21  C   UNL     1       4.382  15.669  25.932  0.00  0.00     0.045 A 
HETATM   22  C   UNL     1       5.566  14.932  25.901  0.00  0.00     0.145 A 
HETATM   23  F   UNL     1       6.074  14.521  27.072  0.00  0.00    -0.204 F 
ENDBRANCH   5  17
TORSDOF 4
ENDMDL
MODEL 6
REMARK VINA RESULT:    -6.532      1.229      1.569
REMARK INTER + INTRA:          -8.559
REMARK INTER:                  -7.693
REMARK INTRA:                  -0.867
REMARK UNBOUND:                -0.882
REMARK  4 active torsions:
REMARK  status: ('A' for Active; 'I' for Inactive)
REMARK    1  A    between atoms: O_1  and  C_2 
REMARK    2  A    between atoms: C_4  and  O_5 
REMARK    3  A    between atoms: C_6  and  C_7 
REMARK    4  A    between atoms: N_11  and  C_12 
ROOT
HETATM    1  C   UNL     1       7.906  13.279  24.059  0.00  0.00     0.073 C 
HETATM    2  C   UNL     1       9.150  13.255  24.678  0.00  0.00     0.053 C 
HETATM    3  C   UNL     1       9.079  14.154  25.742  0.00  0.00     0.141 C 
HETATM    4  N   UNL     1       7.903  14.763  25.806  0.00  0.00    -0.179 NA
HETATM    5  N   UNL     1       7.134  14.142  24.861  0.00  0.00    -0.230 N 
ENDROOT
BRANCH   1   6
HETATM    6  C   UNL     1       7.506  12.587  22.808  0.00  0.00     0.027 C 
HETATM    7  C   UNL     1       8.011  12.967  21.548  0.00  0.00     0.081 C 
HETATM    8  C   UNL     1       7.732  12.235  20.391  0.00  0.00     0.075 C 
HETATM    9  C   UNL     1       6.940  11.092  20.474  0.00  0.00     0.085 C 
HETATM   10  C   UNL     1       6.356  10.740  21.690  0.00  0.00     0.040 C 
HETATM   11  C   UNL     1       6.594  11.516  22.832  0.00  0.00     0.037 C 
HETATM   12  I   UNL     1       5.194   9.012  21.899  0.00  0.00    -0.042 I 
BRANCH   7  13
HETATM   13  O   UNL     1       8.810  14.076  21.427  0.00  0.00    -0.360 OA
HETATM   14  H   UNL     1       9.742  13.812  21.472  0.00  0.00     0.217 HD
ENDBRANCH   7  13
BRANCH   9  15
HETATM   15  O   UNL     1       6.742  10.323  19.361  0.00  0.00    -0.359 OA
HETATM   16  H   UNL     1       6.831  10.873  18.565  0.00  0.00     0.217 HD
ENDBRANCH   9  15
ENDBRANCH   1   6
BRANCH   5  17
HETATM   17  C   UNL     1       5.758  14.498  24.806  0.00  0.00     0.097 A 
HETATM   18  C   UNL     1       5.378  15.612  24.033  0.00  0.00     0.035 A 
HETATM   19  C   UNL     1       4.027  15.927  23.861  0.00  0.00     0.002 A 
HETATM   20  C   UNL     1       3.046  15.150  24.474  0.00  0.00     0.003 A 
HETATM   21  C   UNL     1       3.419  14.090  25.300  0.00  0.00     0.045 A 
HETATM   22  C   UNL     1       4.768  13.789  25.486  0.00  0.00     0.145 A 
HETATM   23  F   UNL     1       5.075  12.824  26.364  0.00  0.00    -0.204 F 
ENDBRANCH   5  17
TORSDOF 4
ENDMDL
MODEL 7
REMARK VINA RESULT:    -6.503      6.810      8.518
REMARK INTER + INTRA:          -8.526
REMARK INTER:                  -7.631
REMARK INTRA:                  -0.895
REMARK UNBOUND:                -0.882
REMARK  4 active torsions:
REMARK  status: ('A' for Active; 'I' for Inactive)
REMARK    1  A    between atoms: O_1  and  C_2 
REMARK    2  A    between atoms: C_4  and  O_5 
REMARK    3  A    between atoms: C_6  and  C_7 
REMARK    4  A    between atoms: N_11  and  C_12 
ROOT
HETATM    1  C   UNL     1      -0.548  12.464  23.735  0.00  0.00     0.073 C 
HETATM    2  C   UNL     1      -1.262  12.903  22.626  0.00  0.00     0.053 C 
HETATM    3  C   UNL     1      -2.435  12.149  22.587  0.00  0.00     0.141 C 
HETATM    4  N   UNL     1      -2.485  11.250  23.560  0.00  0.00    -0.179 NA
HETATM    5  N   UNL     1      -1.397  11.520  24.344  0.00  0.00    -0.230 N 
ENDROOT
BRANCH   1   6
HETATM    6  C   UNL     1       0.819  12.869  24.147  0.00  0.00     0.027 C 
HETATM    7  C   UNL     1       1.063  13.569  25.346  0.00  0.00     0.081 C 
HETATM    8  C   UNL     1       2.361  13.837  25.792  0.00  0.00     0.075 C 
HETATM    9  C   UNL     1       3.450  13.397  25.043  0.00  0.00     0.085 C 
HETATM   10  C   UNL     1       3.241  12.779  23.811  0.00  0.00     0.040 C 
HETATM   11  C   UNL     1       1.936  12.570  23.345  0.00  0.00     0.037 C 
HETATM   12  I   UNL     1       4.827  12.053  22.655  0.00  0.00    -0.042 I 
BRANCH   7  13
HETATM   13  O   UNL     1       0.018  14.002  26.121  0.00  0.00    -0.360 OA
HETATM   14  H   UNL     1      -0.298  14.858  25.792  0.00  0.00     0.217 HD
ENDBRANCH   7  13
BRANCH   9  15
HETATM   15  O   UNL     1       4.717  13.576  25.523  0.00  0.00    -0.359 OA
HETATM   16  H   UNL     1       5.016  14.479  25.328  0.00  0.00     0.217 HD
ENDBRANCH   9  15
ENDBRANCH   1   6
BRANCH   5  17
HETATM   17  C   UNL     1      -1.275  10.794  25.561  0.00  0.00     0.097 A 
HETATM   18  C   UNL     1      -1.988  11.243  26.691  0.00  0.00     0.035 A 
HETATM   19  C   UNL     1      -1.985  10.497  27.872  0.00  0.00     0.002 A 
HETATM   20  C   UNL     1      -1.257   9.311  27.946  0.00  0.00     0.003 A 
HETATM   21  C   UNL     1      -0.491   8.900  26.856  0.00  0.00     0.045 A 
HETATM   22  C   UNL     1      -0.479   9.656  25.684  0.00  0.00     0.145 A 
HETATM   23  F   UNL     1       0.348   9.269  24.702  0.00  0.00    -0.204 F 
ENDBRANCH   5  17
TORSDOF 4
ENDMDL
MODEL 8
REMARK VINA RESULT:    -6.347      3.194      5.527
REMARK INTER + INTRA:          -8.342
REMARK INTER:                  -7.370
REMARK INTRA:                  -0.972
REMARK UNBOUND:                -0.882
REMARK  4 active torsions:
REMARK  status: ('A' for Active; 'I' for Inactive)
REMARK    1  A    between atoms: O_1  and  C_2 
REMARK    2  A    between atoms: C_4  and  O_5 
REMARK    3  A    between atoms: C_6  and  C_7 
REMARK    4  A    between atoms: N_11  and  C_12 
ROOT
HETATM    1  C   UNL     1       7.073  14.239  22.846  0.00  0.00     0.073 C 
HETATM    2  C   UNL     1       7.454  15.144  21.861  0.00  0.00     0.053 C 
HETATM    3  C   UNL     1       8.590  14.609  21.252  0.00  0.00     0.141 C 
HETATM    4  N   UNL     1       8.966  13.466  21.809  0.00  0.00    -0.179 NA
HETATM    5  N   UNL     1       7.972  13.165  22.699  0.00  0.00    -0.230 N 
ENDROOT
BRANCH   1   6
HETATM    6  C   UNL     1       5.993  14.401  23.851  0.00  0.00     0.027 C 
HETATM    7  C   UNL     1       6.239  14.928  25.136  0.00  0.00     0.081 C 
HETATM    8  C   UNL     1       5.201  15.197  26.033  0.00  0.00     0.075 C 
HETATM    9  C   UNL     1       3.884  14.949  25.655  0.00  0.00     0.085 C 
HETATM   10  C   UNL     1       3.616  14.349  24.426  0.00  0.00     0.040 C 
HETATM   11  C   UNL     1       4.669  14.028  23.559  0.00  0.00     0.037 C 
HETATM   12  I   UNL     1       1.660  13.990  23.774  0.00  0.00    -0.042 I 
BRANCH   7  13
HETATM   13  O   UNL     1       7.521  15.203  25.538  0.00  0.00    -0.360 OA
HETATM   14  H   UNL     1       7.561  15.219  26.508  0.00  0.00     0.217 HD
ENDBRANCH   7  13
BRANCH   9  15
HETATM   15  O   UNL     1       2.862  15.297  26.494  0.00  0.00    -0.359 OA
HETATM   16  H   UNL     1       2.086  14.744  26.310  0.00  0.00     0.217 HD
ENDBRANCH   9  15
ENDBRANCH   1   6
BRANCH   5  17
HETATM   17  C   UNL     1       8.038  11.900  23.346  0.00  0.00     0.097 A 
HETATM   18  C   UNL     1       7.315  10.822  22.798  0.00  0.00     0.035 A 
HETATM   19  C   UNL     1       7.443   9.539  23.336  0.00  0.00     0.002 A 
HETATM   20  C   UNL     1       8.271   9.321  24.435  0.00  0.00     0.003 A 
HETATM   21  C   UNL     1       8.931  10.398  25.027  0.00  0.00     0.045 A 
HETATM   22  C   UNL     1       8.788  11.682  24.501  0.00  0.00     0.145 A 
HETATM   23  F   UNL     1       9.366  12.694  25.164  0.00  0.00    -0.204 F 
ENDBRANCH   5  17
TORSDOF 4
ENDMDL
MODEL 9
REMARK VINA RESULT:    -6.253      3.594      4.561
REMARK INTER + INTRA:          -8.231
REMARK INTER:                  -7.349
REMARK INTRA:                  -0.882
REMARK UNBOUND:                -0.882
REMARK  4 active torsions:
REMARK  status: ('A' for Active; 'I' for Inactive)
REMARK    1  A    between atoms: O_1  and  C_2 
REMARK    2  A    between atoms: C_4  and  O_5 
REMARK    3  A    between atoms: C_6  and  C_7 
REMARK    4  A    between atoms: N_11  and  C_12 
ROOT
HETATM    1  C   UNL     1       4.579  13.745  23.458  0.00  0.00     0.073 C 
HETATM    2  C   UNL     1       5.590  14.691  23.334  0.00  0.00     0.053 C 
HETATM    3  C   UNL     1       4.986  15.938  23.489  0.00  0.00     0.141 C 
HETATM    4  N   UNL     1       3.674  15.842  23.658  0.00  0.00    -0.179 NA
HETATM    5  N   UNL     1       3.432  14.500  23.770  0.00  0.00    -0.230 N 
ENDROOT
BRANCH   1   6
HETATM    6  C   UNL     1       4.685  12.278  23.256  0.00  0.00     0.027 C 
HETATM    7  C   UNL     1       4.523  11.363  24.316  0.00  0.00     0.081 C 
HETATM    8  C   UNL     1       4.498   9.982  24.100  0.00  0.00     0.075 C 
HETATM    9  C   UNL     1       4.625   9.486  22.804  0.00  0.00     0.085 C 
HETATM   10  C   UNL     1       4.873  10.361  21.748  0.00  0.00     0.040 C 
HETATM   11  C   UNL     1       4.957  11.740  21.985  0.00  0.00     0.037 C 
HETATM   12  I   UNL     1       5.031   9.692  19.771  0.00  0.00    -0.042 I 
BRANCH   7  13
HETATM   13  O   UNL     1       4.375  11.812  25.603  0.00  0.00    -0.360 OA
HETATM   14  H   UNL     1       4.013  12.713  25.593  0.00  0.00     0.217 HD
ENDBRANCH   7  13
BRANCH   9  15
HETATM   15  O   UNL     1       4.508   8.143  22.580  0.00  0.00    -0.359 OA
HETATM   16  H   UNL     1       3.639   7.952  22.189  0.00  0.00     0.217 HD
ENDBRANCH   9  15
ENDBRANCH   1   6
BRANCH   5  17
HETATM   17  C   UNL     1       2.109  14.103  24.108  0.00  0.00     0.097 A 
HETATM   18  C   UNL     1       1.254  13.654  23.082  0.00  0.00     0.035 A 
HETATM   19  C   UNL     1      -0.013  13.149  23.386  0.00  0.00     0.002 A 
HETATM   20  C   UNL     1      -0.449  13.109  24.709  0.00  0.00     0.003 A 
HETATM   21  C   UNL     1       0.363  13.621  25.721  0.00  0.00     0.045 A 
HETATM   22  C   UNL     1       1.620  14.142  25.413  0.00  0.00     0.145 A 
HETATM   23  F   UNL     1       2.319  14.708  26.408  0.00  0.00    -0.204 F 
ENDBRANCH   5  17
TORSDOF 4
ENDMDL
