MODEL 1
REMARK VINA RESULT:    -8.432      0.000      0.000
REMARK INTER + INTRA:         -12.477
REMARK INTER:                 -11.366
REMARK INTRA:                  -1.111
REMARK UNBOUND:                -1.087
REMARK  7 active torsions:
REMARK  status: ('A' for Active; 'I' for Inactive)
REMARK    1  A    between atoms: O_2  and  C_3 
REMARK    2  A    between atoms: C_6  and  C_7 
REMARK    3  A    between atoms: C_9  and  N_10 
REMARK    4  A    between atoms: C_11  and  C_12 
REMARK       I    between atoms: C_12  and  N_14 
REMARK    5  A    between atoms: N_14  and  C_15 
REMARK    6  A    between atoms: C_25  and  N_26 
REMARK    7  A    between atoms: C_31  and  O_32 
ROOT
HETATM    1  C   UNL     1       0.277   9.832  26.500  0.00  0.00     0.013 C 
HETATM    2  C   UNL     1       1.444   9.016  26.251  0.00  0.00     0.035 C 
HETATM    3  C   UNL     1       2.372   8.796  25.139  0.00  0.00     0.043 C 
HETATM    4  C   UNL     1       3.134   7.647  25.282  0.00  0.00     0.097 C 
HETATM    5  S   UNL     1       3.016   7.047  26.881  0.00  0.00    -0.062 SA
HETATM    6  C   UNL     1       1.843   8.196  27.305  0.00  0.00     0.113 C 
HETATM    7  N   UNL     1       1.375   8.187  28.565  0.00  0.00    -0.227 NA
HETATM    8  C   UNL     1       0.338   8.992  28.804  0.00  0.00     0.123 C 
HETATM    9  C   UNL     1      -0.283   9.752  27.817  0.00  0.00     0.096 C 
HETATM   10  C   UNL     1      -1.505  10.412  28.188  0.00  0.00     0.103 C 
HETATM   11  N   UNL     1      -2.460  10.993  28.520  0.00  0.00    -0.191 NA
ENDROOT
BRANCH   1  12
HETATM   12  C   UNL     1      -0.352  10.645  25.417  0.00  0.00    -0.021 C 
HETATM   13  C   UNL     1      -1.479  10.195  24.724  0.00  0.00     0.015 C 
HETATM   14  C   UNL     1      -1.999  10.892  23.633  0.00  0.00     0.040 C 
HETATM   15  C   UNL     1      -1.551  12.176  23.313  0.00  0.00     0.101 C 
HETATM   16  C   UNL     1      -0.480  12.702  24.037  0.00  0.00     0.102 C 
HETATM   17  C   UNL     1       0.164  11.880  24.989  0.00  0.00     0.052 C 
BRANCH  15  18
HETATM   18  O   UNL     1      -2.107  12.887  22.286  0.00  0.00    -0.353 OA
HETATM   19  C   UNL     1      -1.456  12.775  21.022  0.00  0.00     0.210 C 
ENDBRANCH  15  18
BRANCH  16  20
HETATM   20  O   UNL     1       0.085  13.945  23.979  0.00  0.00    -0.353 OA
HETATM   21  C   UNL     1       1.236  14.287  24.737  0.00  0.00     0.210 C 
ENDBRANCH  16  20
ENDBRANCH   1  12
BRANCH   8  22
HETATM   22  N   UNL     1      -0.134   8.945  30.118  0.00  0.00    -0.286 NA
HETATM   23  H   UNL     1       0.113   9.815  30.583  0.00  0.00     0.125 HD
HETATM   24  H   UNL     1      -1.127   8.741  30.197  0.00  0.00     0.125 HD
ENDBRANCH   8  22
BRANCH   3  25
HETATM   25  N   UNL     1       2.465   9.578  24.024  0.00  0.00    -0.301 NA
HETATM   26  H   UNL     1       1.738   9.466  23.312  0.00  0.00     0.124 HD
HETATM   27  H   UNL     1       3.363   9.560  23.532  0.00  0.00     0.124 HD
ENDBRANCH   3  25
BRANCH   4  28
HETATM   28  C   UNL     1       4.003   6.919  24.352  0.00  0.00     0.265 C 
HETATM   29  O   UNL     1       5.191   6.730  24.592  0.00  0.00    -0.267 OA
HETATM   30  N   UNL     1       3.366   6.464  23.207  0.00  0.00    -0.322 N 
HETATM   31  H   UNL     1       2.399   6.753  23.107  0.00  0.00     0.169 HD
BRANCH  30  32
HETATM   32  C   UNL     1       3.922   5.683  22.162  0.00  0.00     0.035 A 
HETATM   33  C   UNL     1       4.726   6.199  21.140  0.00  0.00     0.032 A 
HETATM   34  C   UNL     1       5.244   5.361  20.145  0.00  0.00     0.044 A 
HETATM   35  C   UNL     1       4.960   4.007  20.169  0.00  0.00     0.116 A 
HETATM   36  F   UNL     1       5.458   3.206  19.216  0.00  0.00    -0.206 F 
HETATM   37  C   UNL     1       4.166   3.468  21.175  0.00  0.00     0.044 A 
HETATM   38  C   UNL     1       3.649   4.306  22.170  0.00  0.00     0.032 A 
ENDBRANCH  30  32
ENDBRANCH   4  28
TORSDOF 7
ENDMDL
MODEL 2
REMARK VINA RESULT:    -8.082      3.867      5.965
REMARK INTER + INTRA:         -12.004
REMARK INTER:                 -11.142
REMARK INTRA:                  -0.862
REMARK UNBOUND:                -1.087
REMARK  7 active torsions:
REMARK  status: ('A' for Active; 'I' for Inactive)
REMARK    1  A    between atoms: O_2  and  C_3 
REMARK    2  A    between atoms: C_6  and  C_7 
REMARK    3  A    between atoms: C_9  and  N_10 
REMARK    4  A    between atoms: C_11  and  C_12 
REMARK       I    between atoms: C_12  and  N_14 
REMARK    5  A    between atoms: N_14  and  C_15 
REMARK    6  A    between atoms: C_25  and  N_26 
REMARK    7  A    between atoms: C_31  and  O_32 
ROOT
HETATM    1  C   UNL     1       4.125   7.218  23.841  0.00  0.00     0.013 C 
HETATM    2  C   UNL     1       4.402   6.806  22.483  0.00  0.00     0.035 C 
HETATM    3  C   UNL     1       4.095   7.299  21.138  0.00  0.00     0.043 C 
HETATM    4  C   UNL     1       4.302   6.349  20.148  0.00  0.00     0.097 C 
HETATM    5  S   UNL     1       5.197   5.028  20.767  0.00  0.00    -0.062 SA
HETATM    6  C   UNL     1       5.148   5.638  22.348  0.00  0.00     0.113 C 
HETATM    7  N   UNL     1       5.772   4.941  23.314  0.00  0.00    -0.227 NA
HETATM    8  C   UNL     1       5.564   5.367  24.561  0.00  0.00     0.123 C 
HETATM    9  C   UNL     1       4.710   6.420  24.878  0.00  0.00     0.096 C 
HETATM   10  C   UNL     1       4.439   6.630  26.274  0.00  0.00     0.103 C 
HETATM   11  N   UNL     1       4.278   6.830  27.411  0.00  0.00    -0.191 NA
ENDROOT
BRANCH   1  12
HETATM   12  C   UNL     1       3.213   8.363  24.138  0.00  0.00    -0.021 C 
HETATM   13  C   UNL     1       3.645   9.689  24.043  0.00  0.00     0.015 C 
HETATM   14  C   UNL     1       2.838  10.757  24.434  0.00  0.00     0.040 C 
HETATM   15  C   UNL     1       1.488  10.570  24.740  0.00  0.00     0.101 C 
HETATM   16  C   UNL     1       0.990   9.267  24.764  0.00  0.00     0.102 C 
HETATM   17  C   UNL     1       1.889   8.193  24.577  0.00  0.00     0.052 C 
BRANCH  15  18
HETATM   18  O   UNL     1       0.679  11.625  25.057  0.00  0.00    -0.353 OA
HETATM   19  C   UNL     1       0.957  12.853  24.383  0.00  0.00     0.210 C 
ENDBRANCH  15  18
BRANCH  16  20
HETATM   20  O   UNL     1      -0.291   8.826  24.950  0.00  0.00    -0.353 OA
HETATM   21  C   UNL     1      -0.612   7.444  25.006  0.00  0.00     0.210 C 
ENDBRANCH  16  20
ENDBRANCH   1  12
BRANCH   8  22
HETATM   22  N   UNL     1       6.211   4.610  25.541  0.00  0.00    -0.286 NA
HETATM   23  H   UNL     1       6.477   3.715  25.137  0.00  0.00     0.125 HD
HETATM   24  H   UNL     1       7.000   5.080  25.977  0.00  0.00     0.125 HD
ENDBRANCH   8  22
BRANCH   3  25
HETATM   25  N   UNL     1       3.592   8.534  20.846  0.00  0.00    -0.301 NA
HETATM   26  H   UNL     1       4.109   9.344  21.197  0.00  0.00     0.124 HD
HETATM   27  H   UNL     1       2.608   8.689  21.079  0.00  0.00     0.124 HD
ENDBRANCH   3  25
BRANCH   4  28
HETATM   28  C   UNL     1       3.930   6.308  18.731  0.00  0.00     0.265 C 
HETATM   29  O   UNL     1       4.667   6.752  17.857  0.00  0.00    -0.267 OA
HETATM   30  N   UNL     1       2.699   5.720  18.476  0.00  0.00    -0.322 N 
HETATM   31  H   UNL     1       2.166   5.461  19.298  0.00  0.00     0.169 HD
BRANCH  30  32
HETATM   32  C   UNL     1       2.102   5.480  17.212  0.00  0.00     0.035 A 
HETATM   33  C   UNL     1       1.735   6.489  16.315  0.00  0.00     0.032 A 
HETATM   34  C   UNL     1       1.155   6.173  15.081  0.00  0.00     0.044 A 
HETATM   35  C   UNL     1       0.940   4.849  14.741  0.00  0.00     0.116 A 
HETATM   36  F   UNL     1       0.385   4.547  13.558  0.00  0.00    -0.206 F 
HETATM   37  C   UNL     1       1.297   3.827  15.613  0.00  0.00     0.044 A 
HETATM   38  C   UNL     1       1.879   4.144  16.846  0.00  0.00     0.032 A 
ENDBRANCH  30  32
ENDBRANCH   4  28
TORSDOF 7
ENDMDL
MODEL 3
REMARK VINA RESULT:    -7.885      3.387      7.524
REMARK INTER + INTRA:         -11.738
REMARK INTER:                 -10.878
REMARK INTRA:                  -0.860
REMARK UNBOUND:                -1.087
REMARK  7 active torsions:
REMARK  status: ('A' for Active; 'I' for Inactive)
REMARK    1  A    between atoms: O_2  and  C_3 
REMARK    2  A    between atoms: C_6  and  C_7 
REMARK    3  A    between atoms: C_9  and  N_10 
REMARK    4  A    between atoms: C_11  and  C_12 
REMARK       I    between atoms: C_12  and  N_14 
REMARK    5  A    between atoms: N_14  and  C_15 
REMARK    6  A    between atoms: C_25  and  N_26 
REMARK    7  A    between atoms: C_31  and  O_32 
ROOT
HETATM    1  C   UNL     1       1.585   7.930  26.960  0.00  0.00     0.013 C 
HETATM    2  C   UNL     1       0.414   8.728  26.676  0.00  0.00     0.035 C 
HETATM    3  C   UNL     1      -0.450   8.977  25.519  0.00  0.00     0.043 C 
HETATM    4  C   UNL     1      -1.250  10.100  25.666  0.00  0.00     0.097 C 
HETATM    5  S   UNL     1      -1.244  10.628  27.295  0.00  0.00    -0.062 SA
HETATM    6  C   UNL     1      -0.069   9.490  27.739  0.00  0.00     0.113 C 
HETATM    7  N   UNL     1       0.321   9.452  29.024  0.00  0.00    -0.227 NA
HETATM    8  C   UNL     1       1.363   8.662  29.291  0.00  0.00     0.123 C 
HETATM    9  C   UNL     1       2.062   7.962  28.311  0.00  0.00     0.096 C 
HETATM   10  C   UNL     1       3.277   7.315  28.728  0.00  0.00     0.103 C 
HETATM   11  N   UNL     1       4.225   6.742  29.091  0.00  0.00    -0.191 NA
ENDROOT
BRANCH   1  12
HETATM   12  C   UNL     1       2.300   7.183  25.883  0.00  0.00    -0.021 C 
HETATM   13  C   UNL     1       2.069   5.823  25.657  0.00  0.00     0.015 C 
HETATM   14  C   UNL     1       2.819   5.091  24.735  0.00  0.00     0.040 C 
HETATM   15  C   UNL     1       3.688   5.724  23.844  0.00  0.00     0.101 C 
HETATM   16  C   UNL     1       3.885   7.100  23.977  0.00  0.00     0.102 C 
HETATM   17  C   UNL     1       3.277   7.770  25.062  0.00  0.00     0.052 C 
BRANCH  15  18
HETATM   18  O   UNL     1       4.371   5.017  22.894  0.00  0.00    -0.353 OA
HETATM   19  C   UNL     1       3.596   4.525  21.801  0.00  0.00     0.210 C 
ENDBRANCH  15  18
BRANCH  16  20
HETATM   20  O   UNL     1       4.606   7.957  23.193  0.00  0.00    -0.353 OA
HETATM   21  C   UNL     1       4.193   8.308  21.881  0.00  0.00     0.210 C 
ENDBRANCH  16  20
ENDBRANCH   1  12
BRANCH   8  22
HETATM   22  N   UNL     1       1.753   8.659  30.632  0.00  0.00    -0.286 NA
HETATM   23  H   UNL     1       2.143   7.746  30.855  0.00  0.00     0.125 HD
HETATM   24  H   UNL     1       2.386   9.414  30.883  0.00  0.00     0.125 HD
ENDBRANCH   8  22
BRANCH   3  25
HETATM   25  N   UNL     1      -0.455   8.245  24.367  0.00  0.00    -0.301 NA
HETATM   26  H   UNL     1       0.420   7.786  24.100  0.00  0.00     0.124 HD
HETATM   27  H   UNL     1      -0.804   8.720  23.530  0.00  0.00     0.124 HD
ENDBRANCH   3  25
BRANCH   4  28
HETATM   28  C   UNL     1      -2.080  10.849  24.717  0.00  0.00     0.265 C 
HETATM   29  O   UNL     1      -3.291  10.968  24.873  0.00  0.00    -0.267 OA
HETATM   30  N   UNL     1      -1.380  11.407  23.657  0.00  0.00    -0.322 N 
HETATM   31  H   UNL     1      -0.395  11.169  23.617  0.00  0.00     0.169 HD
BRANCH  30  32
HETATM   32  C   UNL     1      -1.892  12.231  22.623  0.00  0.00     0.035 A 
HETATM   33  C   UNL     1      -3.160  12.823  22.648  0.00  0.00     0.032 A 
HETATM   34  C   UNL     1      -3.594  13.631  21.590  0.00  0.00     0.044 A 
HETATM   35  C   UNL     1      -2.763  13.848  20.506  0.00  0.00     0.116 A 
HETATM   36  F   UNL     1      -3.179  14.623  19.494  0.00  0.00    -0.206 F 
HETATM   37  C   UNL     1      -1.497  13.274  20.457  0.00  0.00     0.044 A 
HETATM   38  C   UNL     1      -1.063  12.468  21.516  0.00  0.00     0.032 A 
ENDBRANCH  30  32
ENDBRANCH   4  28
TORSDOF 7
ENDMDL
MODEL 4
REMARK VINA RESULT:    -7.719      3.149      4.672
REMARK INTER + INTRA:         -11.513
REMARK INTER:                 -10.486
REMARK INTRA:                  -1.027
REMARK UNBOUND:                -1.087
REMARK  7 active torsions:
REMARK  status: ('A' for Active; 'I' for Inactive)
REMARK    1  A    between atoms: O_2  and  C_3 
REMARK    2  A    between atoms: C_6  and  C_7 
REMARK    3  A    between atoms: C_9  and  N_10 
REMARK    4  A    between atoms: C_11  and  C_12 
REMARK       I    between atoms: C_12  and  N_14 
REMARK    5  A    between atoms: N_14  and  C_15 
REMARK    6  A    between atoms: C_25  and  N_26 
REMARK    7  A    between atoms: C_31  and  O_32 
ROOT
HETATM    1  C   UNL     1       3.307   7.971  24.971  0.00  0.00     0.013 C 
HETATM    2  C   UNL     1       3.746   7.190  23.837  0.00  0.00     0.035 C 
HETATM    3  C   UNL     1       3.756   7.342  22.380  0.00  0.00     0.043 C 
HETATM    4  C   UNL     1       3.980   6.150  21.708  0.00  0.00     0.097 C 
HETATM    5  S   UNL     1       4.540   4.949  22.793  0.00  0.00    -0.062 SA
HETATM    6  C   UNL     1       4.315   5.955  24.139  0.00  0.00     0.113 C 
HETATM    7  N   UNL     1       4.648   5.474  25.350  0.00  0.00    -0.227 NA
HETATM    8  C   UNL     1       4.297   6.232  26.391  0.00  0.00     0.123 C 
HETATM    9  C   UNL     1       3.574   7.415  26.265  0.00  0.00     0.096 C 
HETATM   10  C   UNL     1       3.103   8.012  27.486  0.00  0.00     0.103 C 
HETATM   11  N   UNL     1       2.781   8.520  28.485  0.00  0.00    -0.191 NA
ENDROOT
BRANCH   1  12
HETATM   12  C   UNL     1       2.546   9.243  24.795  0.00  0.00    -0.021 C 
HETATM   13  C   UNL     1       3.183  10.436  24.438  0.00  0.00     0.015 C 
HETATM   14  C   UNL     1       2.498  11.650  24.389  0.00  0.00     0.040 C 
HETATM   15  C   UNL     1       1.106  11.702  24.487  0.00  0.00     0.101 C 
HETATM   16  C   UNL     1       0.419  10.518  24.758  0.00  0.00     0.102 C 
HETATM   17  C   UNL     1       1.163   9.345  25.019  0.00  0.00     0.052 C 
BRANCH  15  18
HETATM   18  O   UNL     1       0.429  12.884  24.370  0.00  0.00    -0.353 OA
HETATM   19  C   UNL     1       1.136  14.054  24.782  0.00  0.00     0.210 C 
ENDBRANCH  15  18
BRANCH  16  20
HETATM   20  O   UNL     1      -0.927  10.286  24.820  0.00  0.00    -0.353 OA
HETATM   21  C   UNL     1      -1.692  10.588  25.978  0.00  0.00     0.210 C 
ENDBRANCH  16  20
ENDBRANCH   1  12
BRANCH   8  22
HETATM   22  N   UNL     1       4.641   5.695  27.633  0.00  0.00    -0.286 NA
HETATM   23  H   UNL     1       5.015   4.759  27.491  0.00  0.00     0.125 HD
HETATM   24  H   UNL     1       5.271   6.277  28.179  0.00  0.00     0.125 HD
ENDBRANCH   8  22
BRANCH   3  25
HETATM   25  N   UNL     1       3.507   8.503  21.706  0.00  0.00    -0.301 NA
HETATM   26  H   UNL     1       4.203   8.802  21.017  0.00  0.00     0.124 HD
HETATM   27  H   UNL     1       3.290   9.322  22.280  0.00  0.00     0.124 HD
ENDBRANCH   3  25
BRANCH   4  28
HETATM   28  C   UNL     1       3.856   5.777  20.295  0.00  0.00     0.265 C 
HETATM   29  O   UNL     1       4.686   5.065  19.740  0.00  0.00    -0.267 OA
HETATM   30  N   UNL     1       2.729   6.284  19.664  0.00  0.00    -0.322 N 
HETATM   31  H   UNL     1       2.166   6.914  20.224  0.00  0.00     0.169 HD
BRANCH  30  32
HETATM   32  C   UNL     1       2.307   6.047  18.331  0.00  0.00     0.035 A 
HETATM   33  C   UNL     1       1.849   4.811  17.862  0.00  0.00     0.032 A 
HETATM   34  C   UNL     1       1.443   4.656  16.531  0.00  0.00     0.044 A 
HETATM   35  C   UNL     1       1.492   5.736  15.667  0.00  0.00     0.116 A 
HETATM   36  F   UNL     1       1.102   5.588  14.393  0.00  0.00    -0.206 F 
HETATM   37  C   UNL     1       1.940   6.976  16.108  0.00  0.00     0.044 A 
HETATM   38  C   UNL     1       2.345   7.130  17.439  0.00  0.00     0.032 A 
ENDBRANCH  30  32
ENDBRANCH   4  28
TORSDOF 7
ENDMDL
MODEL 5
REMARK VINA RESULT:    -7.700      3.476      7.800
REMARK INTER + INTRA:         -11.488
REMARK INTER:                 -10.661
REMARK INTRA:                  -0.828
REMARK UNBOUND:                -1.087
REMARK  7 active torsions:
REMARK  status: ('A' for Active; 'I' for Inactive)
REMARK    1  A    between atoms: O_2  and  C_3 
REMARK    2  A    between atoms: C_6  and  C_7 
REMARK    3  A    between atoms: C_9  and  N_10 
REMARK    4  A    between atoms: C_11  and  C_12 
REMARK       I    between atoms: C_12  and  N_14 
REMARK    5  A    between atoms: N_14  and  C_15 
REMARK    6  A    between atoms: C_25  and  N_26 
REMARK    7  A    between atoms: C_31  and  O_32 
ROOT
HETATM    1  C   UNL     1       1.630   8.063  27.038  0.00  0.00     0.013 C 
HETATM    2  C   UNL     1       0.433   8.817  26.741  0.00  0.00     0.035 C 
HETATM    3  C   UNL     1      -0.405   9.063  25.564  0.00  0.00     0.043 C 
HETATM    4  C   UNL     1      -1.259  10.144  25.719  0.00  0.00     0.097 C 
HETATM    5  S   UNL     1      -1.329  10.620  27.362  0.00  0.00    -0.062 SA
HETATM    6  C   UNL     1      -0.117   9.522  27.809  0.00  0.00     0.113 C 
HETATM    7  N   UNL     1       0.233   9.461  29.105  0.00  0.00    -0.227 NA
HETATM    8  C   UNL     1       1.302   8.710  29.382  0.00  0.00     0.123 C 
HETATM    9  C   UNL     1       2.063   8.074  28.405  0.00  0.00     0.096 C 
HETATM   10  C   UNL     1       3.292   7.469  28.841  0.00  0.00     0.103 C 
HETATM   11  N   UNL     1       4.254   6.928  29.218  0.00  0.00    -0.191 NA
ENDROOT
BRANCH   1  12
HETATM   12  C   UNL     1       2.411   7.383  25.963  0.00  0.00    -0.021 C 
HETATM   13  C   UNL     1       3.339   8.076  25.181  0.00  0.00     0.015 C 
HETATM   14  C   UNL     1       3.983   7.477  24.098  0.00  0.00     0.040 C 
HETATM   15  C   UNL     1       3.894   6.102  23.873  0.00  0.00     0.101 C 
HETATM   16  C   UNL     1       3.043   5.352  24.687  0.00  0.00     0.102 C 
HETATM   17  C   UNL     1       2.239   6.029  25.632  0.00  0.00     0.052 C 
BRANCH  15  18
HETATM   18  O   UNL     1       4.580   5.503  22.853  0.00  0.00    -0.353 OA
HETATM   19  C   UNL     1       5.721   6.208  22.367  0.00  0.00     0.210 C 
ENDBRANCH  15  18
BRANCH  16  20
HETATM   20  O   UNL     1       2.842   4.001  24.727  0.00  0.00    -0.353 OA
HETATM   21  C   UNL     1       3.700   3.132  25.452  0.00  0.00     0.210 C 
ENDBRANCH  16  20
ENDBRANCH   1  12
BRANCH   8  22
HETATM   22  N   UNL     1       1.649   8.683  30.734  0.00  0.00    -0.286 NA
HETATM   23  H   UNL     1       2.649   8.506  30.809  0.00  0.00     0.125 HD
HETATM   24  H   UNL     1       1.371   9.512  31.253  0.00  0.00     0.125 HD
ENDBRANCH   8  22
BRANCH   3  25
HETATM   25  N   UNL     1      -0.340   8.369  24.391  0.00  0.00    -0.301 NA
HETATM   26  H   UNL     1       0.502   8.489  23.822  0.00  0.00     0.124 HD
HETATM   27  H   UNL     1      -1.139   8.472  23.759  0.00  0.00     0.124 HD
ENDBRANCH   3  25
BRANCH   4  28
HETATM   28  C   UNL     1      -2.092  10.885  24.766  0.00  0.00     0.265 C 
HETATM   29  O   UNL     1      -3.303  11.005  24.924  0.00  0.00    -0.267 OA
HETATM   30  N   UNL     1      -1.396  11.436  23.700  0.00  0.00    -0.322 N 
HETATM   31  H   UNL     1      -0.411  11.198  23.659  0.00  0.00     0.169 HD
BRANCH  30  32
HETATM   32  C   UNL     1      -1.911  12.251  22.661  0.00  0.00     0.035 A 
HETATM   33  C   UNL     1      -3.185  12.831  22.679  0.00  0.00     0.032 A 
HETATM   34  C   UNL     1      -3.622  13.631  21.616  0.00  0.00     0.044 A 
HETATM   35  C   UNL     1      -2.788  13.852  20.534  0.00  0.00     0.116 A 
HETATM   36  F   UNL     1      -3.207  14.619  19.518  0.00  0.00    -0.206 F 
HETATM   37  C   UNL     1      -1.518  13.289  20.492  0.00  0.00     0.044 A 
HETATM   38  C   UNL     1      -1.081  12.491  21.555  0.00  0.00     0.032 A 
ENDBRANCH  30  32
ENDBRANCH   4  28
TORSDOF 7
ENDMDL
MODEL 6
REMARK VINA RESULT:    -7.456      1.975      2.097
REMARK INTER + INTRA:         -11.158
REMARK INTER:                  -9.921
REMARK INTRA:                  -1.237
REMARK UNBOUND:                -1.087
REMARK  7 active torsions:
REMARK  status: ('A' for Active; 'I' for Inactive)
REMARK    1  A    between atoms: O_2  and  C_3 
REMARK    2  A    between atoms: C_6  and  C_7 
REMARK    3  A    between atoms: C_9  and  N_10 
REMARK    4  A    between atoms: C_11  and  C_12 
REMARK       I    between atoms: C_12  and  N_14 
REMARK    5  A    between atoms: N_14  and  C_15 
REMARK    6  A    between atoms: C_25  and  N_26 
REMARK    7  A    between atoms: C_31  and  O_32 
ROOT
HETATM    1  C   UNL     1       0.217   9.546  26.552  0.00  0.00     0.013 C 
HETATM    2  C   UNL     1       1.092   8.424  26.298  0.00  0.00     0.035 C 
HETATM    3  C   UNL     1       1.845   7.900  25.156  0.00  0.00     0.043 C 
HETATM    4  C   UNL     1       2.266   6.590  25.334  0.00  0.00     0.097 C 
HETATM    5  S   UNL     1       2.093   6.125  26.973  0.00  0.00    -0.062 SA
HETATM    6  C   UNL     1       1.316   7.576  27.381  0.00  0.00     0.113 C 
HETATM    7  N   UNL     1       0.951   7.759  28.661  0.00  0.00    -0.227 NA
HETATM    8  C   UNL     1       0.196   8.833  28.900  0.00  0.00     0.123 C 
HETATM    9  C   UNL     1      -0.254   9.690  27.899  0.00  0.00     0.096 C 
HETATM   10  C   UNL     1      -1.217  10.684  28.289  0.00  0.00     0.103 C 
HETATM   11  N   UNL     1      -1.949  11.525  28.630  0.00  0.00    -0.191 NA
ENDROOT
BRANCH   1  12
HETATM   12  C   UNL     1      -0.233  10.450  25.453  0.00  0.00    -0.021 C 
HETATM   13  C   UNL     1      -1.417  10.215  24.748  0.00  0.00     0.015 C 
HETATM   14  C   UNL     1      -1.782  10.985  23.643  0.00  0.00     0.040 C 
HETATM   15  C   UNL     1      -1.093  12.155  23.317  0.00  0.00     0.101 C 
HETATM   16  C   UNL     1       0.049  12.476  24.051  0.00  0.00     0.102 C 
HETATM   17  C   UNL     1       0.514  11.559  25.020  0.00  0.00     0.052 C 
BRANCH  15  18
HETATM   18  O   UNL     1      -1.492  12.947  22.276  0.00  0.00    -0.353 OA
HETATM   19  C   UNL     1      -2.834  12.764  21.828  0.00  0.00     0.210 C 
ENDBRANCH  15  18
BRANCH  16  20
HETATM   20  O   UNL     1       0.842  13.589  23.988  0.00  0.00    -0.353 OA
HETATM   21  C   UNL     1       1.255  14.287  25.153  0.00  0.00     0.210 C 
ENDBRANCH  16  20
ENDBRANCH   1  12
BRANCH   8  22
HETATM   22  N   UNL     1      -0.181   8.984  30.236  0.00  0.00    -0.286 NA
HETATM   23  H   UNL     1      -0.056   8.093  30.712  0.00  0.00     0.125 HD
HETATM   24  H   UNL     1       0.293   9.742  30.721  0.00  0.00     0.125 HD
ENDBRANCH   8  22
BRANCH   3  25
HETATM   25  N   UNL     1       2.077   8.569  23.989  0.00  0.00    -0.301 NA
HETATM   26  H   UNL     1       2.582   9.457  24.051  0.00  0.00     0.124 HD
HETATM   27  H   UNL     1       1.262   8.735  23.393  0.00  0.00     0.124 HD
ENDBRANCH   3  25
BRANCH   4  28
HETATM   28  C   UNL     1       2.834   5.604  24.410  0.00  0.00     0.265 C 
HETATM   29  O   UNL     1       3.143   5.900  23.260  0.00  0.00    -0.267 OA
HETATM   30  N   UNL     1       2.998   4.337  24.951  0.00  0.00    -0.322 N 
HETATM   31  H   UNL     1       2.636   4.218  25.890  0.00  0.00     0.169 HD
BRANCH  30  32
HETATM   32  C   UNL     1       3.576   3.201  24.329  0.00  0.00     0.035 A 
HETATM   33  C   UNL     1       4.951   2.948  24.282  0.00  0.00     0.032 A 
HETATM   34  C   UNL     1       5.446   1.798  23.654  0.00  0.00     0.044 A 
HETATM   35  C   UNL     1       4.569   0.901  23.071  0.00  0.00     0.116 A 
HETATM   36  F   UNL     1       5.044  -0.199  22.470  0.00  0.00    -0.206 F 
HETATM   37  C   UNL     1       3.197   1.128  23.105  0.00  0.00     0.044 A 
HETATM   38  C   UNL     1       2.703   2.276  23.735  0.00  0.00     0.032 A 
ENDBRANCH  30  32
ENDBRANCH   4  28
TORSDOF 7
ENDMDL
MODEL 7
REMARK VINA RESULT:    -7.366      4.221      6.172
REMARK INTER + INTRA:         -11.037
REMARK INTER:                  -9.897
REMARK INTRA:                  -1.140
REMARK UNBOUND:                -1.087
REMARK  7 active torsions:
REMARK  status: ('A' for Active; 'I' for Inactive)
REMARK    1  A    between atoms: O_2  and  C_3 
REMARK    2  A    between atoms: C_6  and  C_7 
REMARK    3  A    between atoms: C_9  and  N_10 
REMARK    4  A    between atoms: C_11  and  C_12 
REMARK       I    between atoms: C_12  and  N_14 
REMARK    5  A    between atoms: N_14  and  C_15 
REMARK    6  A    between atoms: C_25  and  N_26 
REMARK    7  A    between atoms: C_31  and  O_32 
ROOT
HETATM    1  C   UNL     1       3.742   6.145  25.862  0.00  0.00     0.013 C 
HETATM    2  C   UNL     1       3.982   6.339  24.450  0.00  0.00     0.035 C 
HETATM    3  C   UNL     1       3.475   7.222  23.396  0.00  0.00     0.043 C 
HETATM    4  C   UNL     1       3.782   6.779  22.118  0.00  0.00     0.097 C 
HETATM    5  S   UNL     1       4.966   5.544  22.183  0.00  0.00    -0.062 SA
HETATM    6  C   UNL     1       4.929   5.493  23.877  0.00  0.00     0.113 C 
HETATM    7  N   UNL     1       5.754   4.636  24.502  0.00  0.00    -0.227 NA
HETATM    8  C   UNL     1       5.570   4.509  25.818  0.00  0.00     0.123 C 
HETATM    9  C   UNL     1       4.555   5.160  26.514  0.00  0.00     0.096 C 
HETATM   10  C   UNL     1       4.364   4.770  27.884  0.00  0.00     0.103 C 
HETATM   11  N   UNL     1       4.260   4.491  29.012  0.00  0.00    -0.191 NA
ENDROOT
BRANCH   1  12
HETATM   12  C   UNL     1       2.651   6.873  26.576  0.00  0.00    -0.021 C 
HETATM   13  C   UNL     1       2.878   8.102  27.203  0.00  0.00     0.015 C 
HETATM   14  C   UNL     1       1.897   8.728  27.972  0.00  0.00     0.040 C 
HETATM   15  C   UNL     1       0.579   8.267  27.980  0.00  0.00     0.101 C 
HETATM   16  C   UNL     1       0.287   7.086  27.296  0.00  0.00     0.102 C 
HETATM   17  C   UNL     1       1.350   6.361  26.711  0.00  0.00     0.052 C 
BRANCH  15  18
HETATM   18  O   UNL     1      -0.398   8.920  28.679  0.00  0.00    -0.353 OA
HETATM   19  C   UNL     1      -1.057   9.982  27.991  0.00  0.00     0.210 C 
ENDBRANCH  15  18
BRANCH  16  20
HETATM   20  O   UNL     1      -0.918   6.476  27.084  0.00  0.00    -0.353 OA
HETATM   21  C   UNL     1      -1.045   5.064  27.007  0.00  0.00     0.210 C 
ENDBRANCH  16  20
ENDBRANCH   1  12
BRANCH   8  22
HETATM   22  N   UNL     1       6.431   3.598  26.433  0.00  0.00    -0.286 NA
HETATM   23  H   UNL     1       5.871   2.896  26.913  0.00  0.00     0.125 HD
HETATM   24  H   UNL     1       7.110   3.176  25.805  0.00  0.00     0.125 HD
ENDBRANCH   8  22
BRANCH   3  25
HETATM   25  N   UNL     1       2.718   8.339  23.599  0.00  0.00    -0.301 NA
HETATM   26  H   UNL     1       1.708   8.250  23.465  0.00  0.00     0.124 HD
HETATM   27  H   UNL     1       3.009   9.181  23.096  0.00  0.00     0.124 HD
ENDBRANCH   3  25
BRANCH   4  28
HETATM   28  C   UNL     1       3.311   7.193  20.793  0.00  0.00     0.265 C 
HETATM   29  O   UNL     1       3.543   8.311  20.346  0.00  0.00    -0.267 OA
HETATM   30  N   UNL     1       2.604   6.217  20.104  0.00  0.00    -0.322 N 
HETATM   31  H   UNL     1       2.427   5.364  20.622  0.00  0.00     0.169 HD
BRANCH  30  32
HETATM   32  C   UNL     1       2.082   6.297  18.788  0.00  0.00     0.035 A 
HETATM   33  C   UNL     1       2.868   6.456  17.641  0.00  0.00     0.032 A 
HETATM   34  C   UNL     1       2.279   6.521  16.373  0.00  0.00     0.044 A 
HETATM   35  C   UNL     1       0.904   6.428  16.248  0.00  0.00     0.116 A 
HETATM   36  F   UNL     1       0.341   6.489  15.033  0.00  0.00    -0.206 F 
HETATM   37  C   UNL     1       0.100   6.268  17.371  0.00  0.00     0.044 A 
HETATM   38  C   UNL     1       0.690   6.201  18.638  0.00  0.00     0.032 A 
ENDBRANCH  30  32
ENDBRANCH   4  28
TORSDOF 7
ENDMDL
MODEL 8
REMARK VINA RESULT:    -7.366      4.279      9.160
REMARK INTER + INTRA:         -11.036
REMARK INTER:                  -9.849
REMARK INTRA:                  -1.188
REMARK UNBOUND:                -1.087
REMARK  7 active torsions:
REMARK  status: ('A' for Active; 'I' for Inactive)
REMARK    1  A    between atoms: O_2  and  C_3 
REMARK    2  A    between atoms: C_6  and  C_7 
REMARK    3  A    between atoms: C_9  and  N_10 
REMARK    4  A    between atoms: C_11  and  C_12 
REMARK       I    between atoms: C_12  and  N_14 
REMARK    5  A    between atoms: N_14  and  C_15 
REMARK    6  A    between atoms: C_25  and  N_26 
REMARK    7  A    between atoms: C_31  and  O_32 
ROOT
HETATM    1  C   UNL     1       3.819   6.587  20.635  0.00  0.00     0.013 C 
HETATM    2  C   UNL     1       3.765   7.407  21.823  0.00  0.00     0.035 C 
HETATM    3  C   UNL     1       3.120   7.337  23.137  0.00  0.00     0.043 C 
HETATM    4  C   UNL     1       3.106   8.553  23.805  0.00  0.00     0.097 C 
HETATM    5  S   UNL     1       4.167   9.662  23.047  0.00  0.00    -0.062 SA
HETATM    6  C   UNL     1       4.492   8.595  21.770  0.00  0.00     0.113 C 
HETATM    7  N   UNL     1       5.356   8.991  20.820  0.00  0.00    -0.227 NA
HETATM    8  C   UNL     1       5.449   8.194  19.753  0.00  0.00     0.123 C 
HETATM    9  C   UNL     1       4.666   7.056  19.578  0.00  0.00     0.096 C 
HETATM   10  C   UNL     1       4.742   6.415  18.293  0.00  0.00     0.103 C 
HETATM   11  N   UNL     1       4.860   5.869  17.270  0.00  0.00    -0.191 NA
ENDROOT
BRANCH   1  12
HETATM   12  C   UNL     1       2.973   5.365  20.491  0.00  0.00    -0.021 C 
HETATM   13  C   UNL     1       3.392   4.122  20.975  0.00  0.00     0.015 C 
HETATM   14  C   UNL     1       2.663   2.956  20.739  0.00  0.00     0.040 C 
HETATM   15  C   UNL     1       1.378   3.003  20.194  0.00  0.00     0.101 C 
HETATM   16  C   UNL     1       0.883   4.238  19.774  0.00  0.00     0.102 C 
HETATM   17  C   UNL     1       1.735   5.364  19.827  0.00  0.00     0.052 C 
BRANCH  15  18
HETATM   18  O   UNL     1       0.636   1.867  20.025  0.00  0.00    -0.353 OA
HETATM   19  C   UNL     1       0.846   1.157  18.805  0.00  0.00     0.210 C 
ENDBRANCH  15  18
BRANCH  16  20
HETATM   20  O   UNL     1      -0.354   4.563  19.292  0.00  0.00    -0.353 OA
HETATM   21  C   UNL     1      -0.632   4.612  17.900  0.00  0.00     0.210 C 
ENDBRANCH  16  20
ENDBRANCH   1  12
BRANCH   8  22
HETATM   22  N   UNL     1       6.341   8.643  18.777  0.00  0.00    -0.286 NA
HETATM   23  H   UNL     1       7.080   9.175  19.232  0.00  0.00     0.125 HD
HETATM   24  H   UNL     1       6.714   7.907  18.183  0.00  0.00     0.125 HD
ENDBRANCH   8  22
BRANCH   3  25
HETATM   25  N   UNL     1       2.522   6.229  23.664  0.00  0.00    -0.301 NA
HETATM   26  H   UNL     1       2.119   6.316  24.600  0.00  0.00     0.124 HD
HETATM   27  H   UNL     1       3.077   5.370  23.661  0.00  0.00     0.124 HD
ENDBRANCH   3  25
BRANCH   4  28
HETATM   28  C   UNL     1       2.397   9.009  25.004  0.00  0.00     0.265 C 
HETATM   29  O   UNL     1       1.680  10.004  24.991  0.00  0.00    -0.267 OA
HETATM   30  N   UNL     1       2.601   8.221  26.127  0.00  0.00    -0.322 N 
HETATM   31  H   UNL     1       3.274   7.471  26.012  0.00  0.00     0.169 HD
BRANCH  30  32
HETATM   32  C   UNL     1       2.007   8.370  27.406  0.00  0.00     0.035 A 
HETATM   33  C   UNL     1       0.632   8.277  27.647  0.00  0.00     0.032 A 
HETATM   34  C   UNL     1       0.119   8.430  28.941  0.00  0.00     0.044 A 
HETATM   35  C   UNL     1       0.980   8.676  29.996  0.00  0.00     0.116 A 
HETATM   36  F   UNL     1       0.488   8.821  31.235  0.00  0.00    -0.206 F 
HETATM   37  C   UNL     1       2.351   8.771  29.785  0.00  0.00     0.044 A 
HETATM   38  C   UNL     1       2.862   8.616  28.491  0.00  0.00     0.032 A 
ENDBRANCH  30  32
ENDBRANCH   4  28
TORSDOF 7
ENDMDL
MODEL 9
REMARK VINA RESULT:    -7.352      4.280      9.340
REMARK INTER + INTRA:         -11.018
REMARK INTER:                  -9.931
REMARK INTRA:                  -1.087
REMARK UNBOUND:                -1.087
REMARK  7 active torsions:
REMARK  status: ('A' for Active; 'I' for Inactive)
REMARK    1  A    between atoms: O_2  and  C_3 
REMARK    2  A    between atoms: C_6  and  C_7 
REMARK    3  A    between atoms: C_9  and  N_10 
REMARK    4  A    between atoms: C_11  and  C_12 
REMARK       I    between atoms: C_12  and  N_14 
REMARK    5  A    between atoms: N_14  and  C_15 
REMARK    6  A    between atoms: C_25  and  N_26 
REMARK    7  A    between atoms: C_31  and  O_32 
ROOT
HETATM    1  C   UNL     1       3.670   6.384  20.282  0.00  0.00     0.013 C 
HETATM    2  C   UNL     1       3.679   7.052  21.563  0.00  0.00     0.035 C 
HETATM    3  C   UNL     1       2.983   6.907  22.844  0.00  0.00     0.043 C 
HETATM    4  C   UNL     1       3.101   8.021  23.660  0.00  0.00     0.097 C 
HETATM    5  S   UNL     1       4.325   9.064  23.072  0.00  0.00    -0.062 SA
HETATM    6  C   UNL     1       4.555   8.130  21.676  0.00  0.00     0.113 C 
HETATM    7  N   UNL     1       5.498   8.521  20.802  0.00  0.00    -0.227 NA
HETATM    8  C   UNL     1       5.527   7.857  19.645  0.00  0.00     0.123 C 
HETATM    9  C   UNL     1       4.610   6.863  19.311  0.00  0.00     0.096 C 
HETATM   10  C   UNL     1       4.650   6.382  17.956  0.00  0.00     0.103 C 
HETATM   11  N   UNL     1       4.734   5.955  16.875  0.00  0.00    -0.191 NA
ENDROOT
BRANCH   1  12
HETATM   12  C   UNL     1       2.679   5.313  19.966  0.00  0.00    -0.021 C 
HETATM   13  C   UNL     1       1.402   5.614  19.485  0.00  0.00     0.015 C 
HETATM   14  C   UNL     1       0.432   4.629  19.302  0.00  0.00     0.040 C 
HETATM   15  C   UNL     1       0.752   3.272  19.389  0.00  0.00     0.101 C 
HETATM   16  C   UNL     1       2.044   2.922  19.785  0.00  0.00     0.102 C 
HETATM   17  C   UNL     1       2.936   3.948  20.173  0.00  0.00     0.052 C 
BRANCH  15  18
HETATM   18  O   UNL     1      -0.181   2.304  19.143  0.00  0.00    -0.353 OA
HETATM   19  C   UNL     1      -1.469   2.765  18.734  0.00  0.00     0.210 C 
ENDBRANCH  15  18
BRANCH  16  20
HETATM   20  O   UNL     1       2.627   1.688  19.867  0.00  0.00    -0.353 OA
HETATM   21  C   UNL     1       3.999   1.522  20.191  0.00  0.00     0.210 C 
ENDBRANCH  16  20
ENDBRANCH   1  12
BRANCH   8  22
HETATM   22  N   UNL     1       6.505   8.300  18.753  0.00  0.00    -0.286 NA
HETATM   23  H   UNL     1       6.434   7.755  17.895  0.00  0.00     0.125 HD
HETATM   24  H   UNL     1       6.481   9.300  18.570  0.00  0.00     0.125 HD
ENDBRANCH   8  22
BRANCH   3  25
HETATM   25  N   UNL     1       2.226   5.832  23.213  0.00  0.00    -0.301 NA
HETATM   26  H   UNL     1       2.713   5.046  23.652  0.00  0.00     0.124 HD
HETATM   27  H   UNL     1       1.620   5.435  22.491  0.00  0.00     0.124 HD
ENDBRANCH   3  25
BRANCH   4  28
HETATM   28  C   UNL     1       2.414   8.417  24.894  0.00  0.00     0.265 C 
HETATM   29  O   UNL     1       3.003   8.485  25.968  0.00  0.00    -0.267 OA
HETATM   30  N   UNL     1       1.068   8.712  24.732  0.00  0.00    -0.322 N 
HETATM   31  H   UNL     1       0.697   8.546  23.803  0.00  0.00     0.169 HD
BRANCH  30  32
HETATM   32  C   UNL     1       0.162   9.180  25.718  0.00  0.00     0.035 A 
HETATM   33  C   UNL     1      -0.111   8.505  26.913  0.00  0.00     0.032 A 
HETATM   34  C   UNL     1      -1.015   9.034  27.843  0.00  0.00     0.044 A 
HETATM   35  C   UNL     1      -1.647  10.237  27.580  0.00  0.00     0.116 A 
HETATM   36  F   UNL     1      -2.511  10.743  28.471  0.00  0.00    -0.206 F 
HETATM   37  C   UNL     1      -1.392  10.928  26.401  0.00  0.00     0.044 A 
HETATM   38  C   UNL     1      -0.487  10.400  25.473  0.00  0.00     0.032 A 
ENDBRANCH  30  32
ENDBRANCH   4  28
TORSDOF 7
ENDMDL
