REMARK  7 active torsions:
REMARK  status: ('A' for Active; 'I' for Inactive)
REMARK    1  A    between atoms: O_2  and  C_3 
REMARK    2  A    between atoms: C_6  and  C_7 
REMARK    3  A    between atoms: C_9  and  N_10 
REMARK    4  A    between atoms: C_11  and  C_12 
REMARK       I    between atoms: C_12  and  N_14 
REMARK    5  A    between atoms: N_14  and  C_15 
REMARK    6  A    between atoms: C_25  and  N_26 
REMARK    7  A    between atoms: C_31  and  O_32 
ROOT
HETATM    1  C   UNL     1       5.118  -4.354   1.960  0.00  0.00     0.013 C 
HETATM    2  C   UNL     1       6.297  -4.094   2.754  0.00  0.00     0.035 C 
HETATM    3  C   UNL     1       6.938  -2.922   3.356  0.00  0.00     0.043 C 
HETATM    4  C   UNL     1       8.251  -3.153   3.738  0.00  0.00     0.097 C 
HETATM    5  S   UNL     1       8.590  -4.831   3.725  0.00  0.00    -0.062 SA
HETATM    6  C   UNL     1       7.077  -5.208   3.059  0.00  0.00     0.113 C 
HETATM    7  N   UNL     1       6.786  -6.502   2.843  0.00  0.00    -0.227 NA
HETATM    8  C   UNL     1       5.661  -6.738   2.165  0.00  0.00     0.123 C 
HETATM    9  C   UNL     1       4.856  -5.728   1.645  0.00  0.00     0.096 C 
HETATM   10  C   UNL     1       3.790  -6.141   0.773  0.00  0.00     0.103 C 
HETATM   11  N   UNL     1       2.891  -6.493   0.119  0.00  0.00    -0.191 NA
ENDROOT
BRANCH   1  12
HETATM   12  C   UNL     1       4.272  -3.243   1.432  0.00  0.00    -0.021 C 
HETATM   13  C   UNL     1       2.887  -3.376   1.298  0.00  0.00     0.015 C 
HETATM   14  C   UNL     1       2.107  -2.389   0.695  0.00  0.00     0.040 C 
HETATM   15  C   UNL     1       2.637  -1.134   0.388  0.00  0.00     0.101 C 
HETATM   16  C   UNL     1       4.003  -0.927   0.586  0.00  0.00     0.102 C 
HETATM   17  C   UNL     1       4.803  -2.019   0.992  0.00  0.00     0.052 C 
BRANCH  15  18
HETATM   18  O   UNL     1       1.857  -0.143  -0.140  0.00  0.00    -0.353 OA
HETATM   19  C   UNL     1       0.454  -0.258   0.095  0.00  0.00     0.210 C 
ENDBRANCH  15  18
BRANCH  16  20
HETATM   20  O   UNL     1       4.741   0.215   0.445  0.00  0.00    -0.353 OA
HETATM   21  C   UNL     1       4.138   1.499   0.377  0.00  0.00     0.210 C 
ENDBRANCH  16  20
ENDBRANCH   1  12
BRANCH   8  22
HETATM   22  N   UNL     1       5.398  -8.091   1.942  0.00  0.00    -0.286 NA
HETATM   23  H   UNL     1       6.077  -8.644   2.461  0.00  0.00     0.125 HD
HETATM   24  H   UNL     1       4.443  -8.370   2.150  0.00  0.00     0.125 HD
ENDBRANCH   8  22
BRANCH   3  25
HETATM   25  N   UNL     1       6.365  -1.690   3.487  0.00  0.00    -0.301 NA
HETATM   26  H   UNL     1       5.351  -1.630   3.364  0.00  0.00     0.124 HD
HETATM   27  H   UNL     1       6.774  -0.938   2.926  0.00  0.00     0.124 HD
ENDBRANCH   3  25
BRANCH   4  28
HETATM   28  C   UNL     1       9.327  -2.251   4.160  0.00  0.00     0.265 C 
HETATM   29  O   UNL     1      10.509  -2.561   4.052  0.00  0.00    -0.267 OA
HETATM   30  N   UNL     1       8.892  -1.036   4.670  0.00  0.00    -0.322 N 
HETATM   31  H   UNL     1       7.887  -0.943   4.766  0.00  0.00     0.169 HD
BRANCH  30  32
HETATM   32  C   UNL     1       9.689   0.056   5.097  0.00  0.00     0.035 A 
HETATM   33  C   UNL     1      11.085   0.090   5.006  0.00  0.00     0.032 A 
HETATM   34  C   UNL     1      11.804   1.209   5.444  0.00  0.00     0.044 A 
HETATM   35  C   UNL     1      11.130   2.295   5.974  0.00  0.00     0.116 A 
HETATM   36  F   UNL     1      11.819   3.366   6.392  0.00  0.00    -0.206 F 
HETATM   37  C   UNL     1       9.743   2.288   6.074  0.00  0.00     0.044 A 
HETATM   38  C   UNL     1       9.025   1.170   5.634  0.00  0.00     0.032 A 
ENDBRANCH  30  32
ENDBRANCH   4  28
TORSDOF 7
