MODEL 1
REMARK VINA RESULT:    -6.016      0.000      0.000
REMARK INTER + INTRA:          -8.831
REMARK INTER:                  -7.943
REMARK INTRA:                  -0.888
REMARK UNBOUND:                -1.056
REMARK  5 active torsions:
REMARK  status: ('A' for Active; 'I' for Inactive)
REMARK    1  A    between atoms: N8_1  and  C24_2 
REMARK    2  A    between atoms: N8_1  and  C7_8 
REMARK    3  A    between atoms: C2_13  and  N1_14 
REMARK    4  A    between atoms: N1_14  and  C17_15 
REMARK    5  A    between atoms: C14_16  and  C13_19 
ROOT
ATOM      1  C17 FTA A   1       2.811  13.534  11.101  1.00  0.00     0.142 C 
ATOM      2  C14 FTA A   1       3.816  12.672  10.846  1.00  0.00     0.158 C 
ATOM      3  C18 FTA A   1       3.651  11.635   9.851  1.00  0.00     0.069 C 
ATOM      4  N21 FTA A   1       3.356  10.816   9.065  1.00  0.00    -0.197 NA
ENDROOT
BRANCH   2   5
ATOM      5  C13 FTA A   1       5.094  12.807  11.583  1.00  0.00     0.197 A 
ATOM      6  N15 FTA A   1       5.275  13.452  12.804  1.00  0.00    -0.093 NA
ATOM      7  N19 FTA A   1       6.627  13.386  13.114  1.00  0.00    -0.231 N 
ATOM      8  N20 FTA A   1       7.294  12.712  12.102  1.00  0.00    -0.017 NA
ATOM      9  H15 FTA A   1       7.065  13.777  13.961  1.00  0.00     0.200 HD
ATOM     10  N16 FTA A   1       6.344  12.342  11.157  1.00  0.00    -0.090 NA
ENDBRANCH   2   5
BRANCH   1  11
ATOM     11  N1  FTA A   1       2.397  13.694  12.372  1.00  0.00    -0.389 N 
ATOM     12  H11 FTA A   1       2.990  13.304  13.119  1.00  0.00     0.159 HD
BRANCH  11  13
ATOM     13  C2  FTA A   1       1.204  14.362  12.763  1.00  0.00     0.028 A 
ATOM     14  C4  FTA A   1       0.648  14.205  14.030  1.00  0.00     0.031 A 
ATOM     15  C6  FTA A   1      -0.640  14.702  14.274  1.00  0.00     0.031 A 
ATOM     16  C7  FTA A   1      -1.384  15.345  13.288  1.00  0.00     0.032 A 
ATOM     17  C5  FTA A   1      -0.807  15.515  12.042  1.00  0.00     0.031 A 
ATOM     18  C3  FTA A   1       0.463  15.019  11.776  1.00  0.00     0.031 A 
BRANCH  16  19
ATOM     19  N8  FTA A   1      -2.756  15.667  13.446  1.00  0.00    -0.356 N 
ATOM     20  H1  FTA A   1      -2.992  16.652  13.632  1.00  0.00     0.166 HD
BRANCH  19  21
ATOM     21  C24 FTA A   1      -3.837  14.737  13.369  1.00  0.00     0.032 A 
ATOM     22  C26 FTA A   1      -3.646  13.443  12.947  1.00  0.00     0.029 A 
ATOM     23  C28 FTA A   1      -4.754  12.647  12.730  1.00  0.00     0.002 A 
ATOM     24  C30 FTA A   1      -6.045  13.094  12.952  1.00  0.00     0.000 A 
ATOM     25  C29 FTA A   1      -6.247  14.369  13.409  1.00  0.00     0.002 A 
ATOM     26  C27 FTA A   1      -5.127  15.179  13.627  1.00  0.00     0.029 A 
ENDBRANCH  19  21
ENDBRANCH  16  19
ENDBRANCH  11  13
ENDBRANCH   1  11
TORSDOF 5
ENDMDL
MODEL 2
REMARK VINA RESULT:    -5.826      1.087      1.630
REMARK INTER + INTRA:          -8.586
REMARK INTER:                  -7.686
REMARK INTRA:                  -0.900
REMARK UNBOUND:                -1.056
REMARK  5 active torsions:
REMARK  status: ('A' for Active; 'I' for Inactive)
REMARK    1  A    between atoms: N8_1  and  C24_2 
REMARK    2  A    between atoms: N8_1  and  C7_8 
REMARK    3  A    between atoms: C2_13  and  N1_14 
REMARK    4  A    between atoms: N1_14  and  C17_15 
REMARK    5  A    between atoms: C14_16  and  C13_19 
ROOT
ATOM      1  C17 FTA A   1       2.936  14.400  11.180  1.00  0.00     0.142 C 
ATOM      2  C14 FTA A   1       3.579  13.261  10.854  1.00  0.00     0.158 C 
ATOM      3  C18 FTA A   1       2.974  12.323   9.933  1.00  0.00     0.069 C 
ATOM      4  N21 FTA A   1       2.342  11.635   9.225  1.00  0.00    -0.197 NA
ENDROOT
BRANCH   2   5
ATOM      5  C13 FTA A   1       4.914  12.987  11.434  1.00  0.00     0.197 A 
ATOM      6  N15 FTA A   1       5.345  13.341  12.710  1.00  0.00    -0.093 NA
ATOM      7  N19 FTA A   1       6.668  12.938  12.831  1.00  0.00    -0.231 N 
ATOM      8  N20 FTA A   1       7.072  12.339  11.647  1.00  0.00    -0.017 NA
ATOM      9  H15 FTA A   1       7.257  13.065  13.667  1.00  0.00     0.200 HD
ATOM     10  N16 FTA A   1       5.982  12.358  10.783  1.00  0.00    -0.090 NA
ENDBRANCH   2   5
BRANCH   1  11
ATOM     11  N1  FTA A   1       2.753  14.695  12.482  1.00  0.00    -0.389 N 
ATOM     12  H11 FTA A   1       3.578  14.661  13.098  1.00  0.00     0.159 HD
BRANCH  11  13
ATOM     13  C2  FTA A   1       1.508  15.050  13.070  1.00  0.00     0.028 A 
ATOM     14  C4  FTA A   1       1.422  15.606  14.344  1.00  0.00     0.031 A 
ATOM     15  C6  FTA A   1       0.165  15.717  14.953  1.00  0.00     0.031 A 
ATOM     16  C7  FTA A   1      -1.002  15.288  14.327  1.00  0.00     0.032 A 
ATOM     17  C5  FTA A   1      -0.902  14.761  13.051  1.00  0.00     0.031 A 
ATOM     18  C3  FTA A   1       0.336  14.630  12.435  1.00  0.00     0.031 A 
BRANCH  16  19
ATOM     19  N8  FTA A   1      -2.248  15.197  14.999  1.00  0.00    -0.356 N 
ATOM     20  H1  FTA A   1      -2.229  14.935  15.995  1.00  0.00     0.166 HD
BRANCH  19  21
ATOM     21  C24 FTA A   1      -3.525  15.438  14.408  1.00  0.00     0.032 A 
ATOM     22  C26 FTA A   1      -4.067  16.701  14.355  1.00  0.00     0.029 A 
ATOM     23  C28 FTA A   1      -5.374  16.843  13.930  1.00  0.00     0.002 A 
ATOM     24  C30 FTA A   1      -6.146  15.766  13.527  1.00  0.00     0.000 A 
ATOM     25  C29 FTA A   1      -5.605  14.508  13.540  1.00  0.00     0.002 A 
ATOM     26  C27 FTA A   1      -4.282  14.360  13.973  1.00  0.00     0.029 A 
ENDBRANCH  19  21
ENDBRANCH  16  19
ENDBRANCH  11  13
ENDBRANCH   1  11
TORSDOF 5
ENDMDL
MODEL 3
REMARK VINA RESULT:    -5.801      1.155      2.723
REMARK INTER + INTRA:          -8.554
REMARK INTER:                  -7.512
REMARK INTRA:                  -1.041
REMARK UNBOUND:                -1.056
REMARK  5 active torsions:
REMARK  status: ('A' for Active; 'I' for Inactive)
REMARK    1  A    between atoms: N8_1  and  C24_2 
REMARK    2  A    between atoms: N8_1  and  C7_8 
REMARK    3  A    between atoms: C2_13  and  N1_14 
REMARK    4  A    between atoms: N1_14  and  C17_15 
REMARK    5  A    between atoms: C14_16  and  C13_19 
ROOT
ATOM      1  C17 FTA A   1       3.605  14.656  12.329  1.00  0.00     0.142 C 
ATOM      2  C14 FTA A   1       4.569  13.925  11.735  1.00  0.00     0.158 C 
ATOM      3  C18 FTA A   1       5.955  14.326  11.841  1.00  0.00     0.069 C 
ATOM      4  N21 FTA A   1       7.021  14.800  11.962  1.00  0.00    -0.197 NA
ENDROOT
BRANCH   2   5
ATOM      5  C13 FTA A   1       4.199  12.702  10.986  1.00  0.00     0.197 A 
ATOM      6  N15 FTA A   1       2.940  12.105  10.957  1.00  0.00    -0.093 NA
ATOM      7  N19 FTA A   1       3.039  10.960  10.177  1.00  0.00    -0.231 N 
ATOM      8  N20 FTA A   1       4.342  10.832   9.720  1.00  0.00    -0.017 NA
ATOM      9  H15 FTA A   1       2.267  10.310   9.971  1.00  0.00     0.200 HD
ATOM     10  N16 FTA A   1       5.061  11.917  10.212  1.00  0.00    -0.090 NA
ENDBRANCH   2   5
BRANCH   1  11
ATOM     11  N1  FTA A   1       2.557  15.073  11.594  1.00  0.00    -0.389 N 
ATOM     12  H11 FTA A   1       2.759  15.525  10.690  1.00  0.00     0.159 HD
BRANCH  11  13
ATOM     13  C2  FTA A   1       1.192  14.937  11.968  1.00  0.00     0.028 A 
ATOM     14  C4  FTA A   1       0.186  15.712  11.397  1.00  0.00     0.031 A 
ATOM     15  C6  FTA A   1      -1.093  15.694  11.969  1.00  0.00     0.031 A 
ATOM     16  C7  FTA A   1      -1.391  14.927  13.092  1.00  0.00     0.032 A 
ATOM     17  C5  FTA A   1      -0.388  14.144  13.632  1.00  0.00     0.031 A 
ATOM     18  C3  FTA A   1       0.891  14.158  13.089  1.00  0.00     0.031 A 
BRANCH  16  19
ATOM     19  N8  FTA A   1      -2.609  15.052  13.808  1.00  0.00    -0.356 N 
ATOM     20  H1  FTA A   1      -2.585  15.580  14.693  1.00  0.00     0.166 HD
BRANCH  19  21
ATOM     21  C24 FTA A   1      -3.865  14.507  13.404  1.00  0.00     0.032 A 
ATOM     22  C26 FTA A   1      -5.043  15.190  13.597  1.00  0.00     0.029 A 
ATOM     23  C28 FTA A   1      -6.235  14.539  13.344  1.00  0.00     0.002 A 
ATOM     24  C30 FTA A   1      -6.286  13.237  12.875  1.00  0.00     0.000 A 
ATOM     25  C29 FTA A   1      -5.119  12.559  12.643  1.00  0.00     0.002 A 
ATOM     26  C27 FTA A   1      -3.910  13.214  12.902  1.00  0.00     0.029 A 
ENDBRANCH  19  21
ENDBRANCH  16  19
ENDBRANCH  11  13
ENDBRANCH   1  11
TORSDOF 5
ENDMDL
MODEL 4
REMARK VINA RESULT:    -5.779      1.221      2.544
REMARK INTER + INTRA:          -8.524
REMARK INTER:                  -7.475
REMARK INTRA:                  -1.050
REMARK UNBOUND:                -1.056
REMARK  5 active torsions:
REMARK  status: ('A' for Active; 'I' for Inactive)
REMARK    1  A    between atoms: N8_1  and  C24_2 
REMARK    2  A    between atoms: N8_1  and  C7_8 
REMARK    3  A    between atoms: C2_13  and  N1_14 
REMARK    4  A    between atoms: N1_14  and  C17_15 
REMARK    5  A    between atoms: C14_16  and  C13_19 
ROOT
ATOM      1  C17 FTA A   1       3.586  14.711  12.237  1.00  0.00     0.142 C 
ATOM      2  C14 FTA A   1       4.548  13.997  11.620  1.00  0.00     0.158 C 
ATOM      3  C18 FTA A   1       5.925  14.441  11.664  1.00  0.00     0.069 C 
ATOM      4  N21 FTA A   1       6.980  14.948  11.735  1.00  0.00    -0.197 NA
ENDROOT
BRANCH   2   5
ATOM      5  C13 FTA A   1       4.187  12.748  10.911  1.00  0.00     0.197 A 
ATOM      6  N15 FTA A   1       2.930  12.147  10.893  1.00  0.00    -0.093 NA
ATOM      7  N19 FTA A   1       3.038  10.976  10.154  1.00  0.00    -0.231 N 
ATOM      8  N20 FTA A   1       4.345  10.835   9.712  1.00  0.00    -0.017 NA
ATOM      9  H15 FTA A   1       2.269  10.317   9.964  1.00  0.00     0.200 HD
ATOM     10  N16 FTA A   1       5.057  11.938  10.171  1.00  0.00    -0.090 NA
ENDBRANCH   2   5
BRANCH   1  11
ATOM     11  N1  FTA A   1       2.498  15.082  11.534  1.00  0.00    -0.389 N 
ATOM     12  H11 FTA A   1       2.652  15.509  10.609  1.00  0.00     0.159 HD
BRANCH  11  13
ATOM     13  C2  FTA A   1       1.154  14.927  11.971  1.00  0.00     0.028 A 
ATOM     14  C4  FTA A   1       0.114  15.694  11.451  1.00  0.00     0.031 A 
ATOM     15  C6  FTA A   1      -1.138  15.657  12.081  1.00  0.00     0.031 A 
ATOM     16  C7  FTA A   1      -1.374  14.881  13.213  1.00  0.00     0.032 A 
ATOM     17  C5  FTA A   1      -0.337  14.106  13.701  1.00  0.00     0.031 A 
ATOM     18  C3  FTA A   1       0.914  14.138  13.099  1.00  0.00     0.031 A 
BRANCH  16  19
ATOM     19  N8  FTA A   1      -2.559  14.987  13.985  1.00  0.00    -0.356 N 
ATOM     20  H1  FTA A   1      -2.495  15.493  14.880  1.00  0.00     0.166 HD
BRANCH  19  21
ATOM     21  C24 FTA A   1      -3.832  14.451  13.624  1.00  0.00     0.032 A 
ATOM     22  C26 FTA A   1      -3.948  13.249  12.967  1.00  0.00     0.029 A 
ATOM     23  C28 FTA A   1      -5.190  12.870  12.494  1.00  0.00     0.002 A 
ATOM     24  C30 FTA A   1      -6.324  13.641  12.684  1.00  0.00     0.000 A 
ATOM     25  C29 FTA A   1      -6.229  14.822  13.370  1.00  0.00     0.002 A 
ATOM     26  C27 FTA A   1      -4.972  15.210  13.847  1.00  0.00     0.029 A 
ENDBRANCH  19  21
ENDBRANCH  16  19
ENDBRANCH  11  13
ENDBRANCH   1  11
TORSDOF 5
ENDMDL
MODEL 5
REMARK VINA RESULT:    -5.607      2.362      4.386
REMARK INTER + INTRA:          -8.303
REMARK INTER:                  -7.401
REMARK INTRA:                  -0.901
REMARK UNBOUND:                -1.056
REMARK  5 active torsions:
REMARK  status: ('A' for Active; 'I' for Inactive)
REMARK    1  A    between atoms: N8_1  and  C24_2 
REMARK    2  A    between atoms: N8_1  and  C7_8 
REMARK    3  A    between atoms: C2_13  and  N1_14 
REMARK    4  A    between atoms: N1_14  and  C17_15 
REMARK    5  A    between atoms: C14_16  and  C13_19 
ROOT
ATOM      1  C17 FTA A   1       6.961  13.229  12.168  1.00  0.00     0.142 C 
ATOM      2  C14 FTA A   1       7.990  13.395  11.313  1.00  0.00     0.158 C 
ATOM      3  C18 FTA A   1       8.648  14.680  11.208  1.00  0.00     0.069 C 
ATOM      4  N21 FTA A   1       9.045  15.783  11.187  1.00  0.00    -0.197 NA
ENDROOT
BRANCH   2   5
ATOM      5  C13 FTA A   1       8.450  12.249  10.495  1.00  0.00     0.197 A 
ATOM      6  N15 FTA A   1       7.642  11.265   9.931  1.00  0.00    -0.093 NA
ATOM      7  N19 FTA A   1       8.474  10.359   9.288  1.00  0.00    -0.231 N 
ATOM      8  N20 FTA A   1       9.793  10.761   9.444  1.00  0.00    -0.017 NA
ATOM      9  H15 FTA A   1       8.163   9.520   8.776  1.00  0.00     0.200 HD
ATOM     10  N16 FTA A   1       9.779  11.940  10.183  1.00  0.00    -0.090 NA
ENDBRANCH   2   5
BRANCH   1  11
ATOM     11  N1  FTA A   1       5.803  12.722  11.702  1.00  0.00    -0.389 N 
ATOM     12  H11 FTA A   1       5.842  11.815  11.216  1.00  0.00     0.159 HD
BRANCH  11  13
ATOM     13  C2  FTA A   1       4.531  13.344  11.831  1.00  0.00     0.028 A 
ATOM     14  C4  FTA A   1       3.384  12.812  11.248  1.00  0.00     0.031 A 
ATOM     15  C6  FTA A   1       2.216  13.586  11.216  1.00  0.00     0.031 A 
ATOM     16  C7  FTA A   1       2.166  14.872  11.748  1.00  0.00     0.032 A 
ATOM     17  C5  FTA A   1       3.307  15.376  12.346  1.00  0.00     0.031 A 
ATOM     18  C3  FTA A   1       4.478  14.630  12.376  1.00  0.00     0.031 A 
BRANCH  16  19
ATOM     19  N8  FTA A   1       1.068  15.747  11.543  1.00  0.00    -0.356 N 
ATOM     20  H1  FTA A   1       1.243  16.604  10.998  1.00  0.00     0.166 HD
BRANCH  19  21
ATOM     21  C24 FTA A   1      -0.257  15.539  12.031  1.00  0.00     0.032 A 
ATOM     22  C26 FTA A   1      -0.514  14.688  13.080  1.00  0.00     0.029 A 
ATOM     23  C28 FTA A   1      -1.829  14.397  13.390  1.00  0.00     0.002 A 
ATOM     24  C30 FTA A   1      -2.895  14.955  12.706  1.00  0.00     0.000 A 
ATOM     25  C29 FTA A   1      -2.653  15.834  11.684  1.00  0.00     0.002 A 
ATOM     26  C27 FTA A   1      -1.322  16.128  11.364  1.00  0.00     0.029 A 
ENDBRANCH  19  21
ENDBRANCH  16  19
ENDBRANCH  11  13
ENDBRANCH   1  11
TORSDOF 5
ENDMDL
MODEL 6
REMARK VINA RESULT:    -5.602     12.675     15.243
REMARK INTER + INTRA:          -8.296
REMARK INTER:                  -7.282
REMARK INTRA:                  -1.014
REMARK UNBOUND:                -1.056
REMARK  5 active torsions:
REMARK  status: ('A' for Active; 'I' for Inactive)
REMARK    1  A    between atoms: N8_1  and  C24_2 
REMARK    2  A    between atoms: N8_1  and  C7_8 
REMARK    3  A    between atoms: C2_13  and  N1_14 
REMARK    4  A    between atoms: N1_14  and  C17_15 
REMARK    5  A    between atoms: C14_16  and  C13_19 
ROOT
ATOM      1  C17 FTA A   1       7.763  19.380  18.534  1.00  0.00     0.142 C 
ATOM      2  C14 FTA A   1       6.459  19.427  18.871  1.00  0.00     0.158 C 
ATOM      3  C18 FTA A   1       5.770  20.698  18.936  1.00  0.00     0.069 C 
ATOM      4  N21 FTA A   1       5.359  21.794  19.005  1.00  0.00    -0.197 NA
ENDROOT
BRANCH   2   5
ATOM      5  C13 FTA A   1       5.735  18.167  19.157  1.00  0.00     0.197 A 
ATOM      6  N15 FTA A   1       5.648  17.059  18.317  1.00  0.00    -0.093 NA
ATOM      7  N19 FTA A   1       4.842  16.120  18.946  1.00  0.00    -0.231 N 
ATOM      8  N20 FTA A   1       4.421  16.626  20.167  1.00  0.00    -0.017 NA
ATOM      9  H15 FTA A   1       4.595  15.194  18.567  1.00  0.00     0.200 HD
ATOM     10  N16 FTA A   1       4.982  17.891  20.305  1.00  0.00    -0.090 NA
ENDBRANCH   2   5
BRANCH   1  11
ATOM     11  N1  FTA A   1       8.622  18.731  19.344  1.00  0.00    -0.389 N 
ATOM     12  H11 FTA A   1       8.981  17.820  19.023  1.00  0.00     0.159 HD
BRANCH  11  13
ATOM     13  C2  FTA A   1       9.070  19.206  20.606  1.00  0.00     0.028 A 
ATOM     14  C4  FTA A   1       9.740  20.419  20.746  1.00  0.00     0.031 A 
ATOM     15  C6  FTA A   1      10.355  20.719  21.969  1.00  0.00     0.031 A 
ATOM     16  C7  FTA A   1      10.319  19.842  23.050  1.00  0.00     0.032 A 
ATOM     17  C5  FTA A   1       9.627  18.653  22.904  1.00  0.00     0.031 A 
ATOM     18  C3  FTA A   1       9.023  18.331  21.695  1.00  0.00     0.031 A 
BRANCH  16  19
ATOM     19  N8  FTA A   1      11.103  20.027  24.218  1.00  0.00    -0.356 N 
ATOM     20  H1  FTA A   1      12.126  20.042  24.102  1.00  0.00     0.166 HD
BRANCH  19  21
ATOM     21  C24 FTA A   1      10.590  20.195  25.540  1.00  0.00     0.032 A 
ATOM     22  C26 FTA A   1      11.074  19.464  26.598  1.00  0.00     0.029 A 
ATOM     23  C28 FTA A   1      10.421  19.547  27.814  1.00  0.00     0.002 A 
ATOM     24  C30 FTA A   1       9.320  20.362  28.012  1.00  0.00     0.000 A 
ATOM     25  C29 FTA A   1       8.852  21.125  26.975  1.00  0.00     0.002 A 
ATOM     26  C27 FTA A   1       9.508  21.040  25.742  1.00  0.00     0.029 A 
ENDBRANCH  19  21
ENDBRANCH  16  19
ENDBRANCH  11  13
ENDBRANCH   1  11
TORSDOF 5
ENDMDL
MODEL 7
REMARK VINA RESULT:    -5.487     12.145     14.630
REMARK INTER + INTRA:          -8.147
REMARK INTER:                  -7.081
REMARK INTRA:                  -1.066
REMARK UNBOUND:                -1.056
REMARK  5 active torsions:
REMARK  status: ('A' for Active; 'I' for Inactive)
REMARK    1  A    between atoms: N8_1  and  C24_2 
REMARK    2  A    between atoms: N8_1  and  C7_8 
REMARK    3  A    between atoms: C2_13  and  N1_14 
REMARK    4  A    between atoms: N1_14  and  C17_15 
REMARK    5  A    between atoms: C14_16  and  C13_19 
ROOT
ATOM      1  C17 FTA A   1       8.249  17.771  18.370  1.00  0.00     0.142 C 
ATOM      2  C14 FTA A   1       7.073  17.479  17.780  1.00  0.00     0.158 C 
ATOM      3  C18 FTA A   1       7.048  16.914  16.448  1.00  0.00     0.069 C 
ATOM      4  N21 FTA A   1       7.178  16.517  15.353  1.00  0.00    -0.197 NA
ENDROOT
BRANCH   2   5
ATOM      5  C13 FTA A   1       5.810  17.728  18.512  1.00  0.00     0.197 A 
ATOM      6  N15 FTA A   1       5.357  18.962  18.974  1.00  0.00    -0.093 NA
ATOM      7  N19 FTA A   1       4.159  18.743  19.642  1.00  0.00    -0.231 N 
ATOM      8  N20 FTA A   1       3.859  17.389  19.607  1.00  0.00    -0.017 NA
ATOM      9  H15 FTA A   1       3.585  19.471  20.093  1.00  0.00     0.200 HD
ATOM     10  N16 FTA A   1       4.876  16.760  18.897  1.00  0.00    -0.090 NA
ENDBRANCH   2   5
BRANCH   1  11
ATOM     11  N1  FTA A   1       8.441  19.009  18.865  1.00  0.00    -0.389 N 
ATOM     12  H11 FTA A   1       8.242  19.806  18.243  1.00  0.00     0.159 HD
BRANCH  11  13
ATOM     13  C2  FTA A   1       8.896  19.299  20.180  1.00  0.00     0.028 A 
ATOM     14  C4  FTA A   1       9.650  20.434  20.470  1.00  0.00     0.031 A 
ATOM     15  C6  FTA A   1      10.259  20.543  21.727  1.00  0.00     0.031 A 
ATOM     16  C7  FTA A   1      10.136  19.552  22.698  1.00  0.00     0.032 A 
ATOM     17  C5  FTA A   1       9.363  18.443  22.404  1.00  0.00     0.031 A 
ATOM     18  C3  FTA A   1       8.762  18.309  21.158  1.00  0.00     0.031 A 
BRANCH  16  19
ATOM     19  N8  FTA A   1      10.906  19.541  23.888  1.00  0.00    -0.356 N 
ATOM     20  H1  FTA A   1      11.871  19.185  23.824  1.00  0.00     0.166 HD
BRANCH  19  21
ATOM     21  C24 FTA A   1      10.455  19.982  25.169  1.00  0.00     0.032 A 
ATOM     22  C26 FTA A   1      10.966  19.458  26.333  1.00  0.00     0.029 A 
ATOM     23  C28 FTA A   1      10.369  19.800  27.531  1.00  0.00     0.002 A 
ATOM     24  C30 FTA A   1       9.297  20.673  27.605  1.00  0.00     0.000 A 
ATOM     25  C29 FTA A   1       8.804  21.232  26.456  1.00  0.00     0.002 A 
ATOM     26  C27 FTA A   1       9.404  20.885  25.240  1.00  0.00     0.029 A 
ENDBRANCH  19  21
ENDBRANCH  16  19
ENDBRANCH  11  13
ENDBRANCH   1  11
TORSDOF 5
ENDMDL
MODEL 8
REMARK VINA RESULT:    -5.425      7.493     10.383
REMARK INTER + INTRA:          -8.067
REMARK INTER:                  -7.011
REMARK INTRA:                  -1.056
REMARK UNBOUND:                -1.056
REMARK  5 active torsions:
REMARK  status: ('A' for Active; 'I' for Inactive)
REMARK    1  A    between atoms: N8_1  and  C24_2 
REMARK    2  A    between atoms: N8_1  and  C7_8 
REMARK    3  A    between atoms: C2_13  and  N1_14 
REMARK    4  A    between atoms: N1_14  and  C17_15 
REMARK    5  A    between atoms: C14_16  and  C13_19 
ROOT
ATOM      1  C17 FTA A   1       6.034  16.477  16.641  1.00  0.00     0.142 C 
ATOM      2  C14 FTA A   1       6.363  17.055  17.814  1.00  0.00     0.158 C 
ATOM      3  C18 FTA A   1       5.358  17.245  18.838  1.00  0.00     0.069 C 
ATOM      4  N21 FTA A   1       4.435  17.386  19.547  1.00  0.00    -0.197 NA
ENDROOT
BRANCH   2   5
ATOM      5  C13 FTA A   1       7.762  17.479  18.050  1.00  0.00     0.197 A 
ATOM      6  N15 FTA A   1       8.854  17.202  17.231  1.00  0.00    -0.093 NA
ATOM      7  N19 FTA A   1       9.980  17.741  17.839  1.00  0.00    -0.231 N 
ATOM      8  N20 FTA A   1       9.608  18.349  19.029  1.00  0.00    -0.017 NA
ATOM      9  H15 FTA A   1      10.940  17.696  17.467  1.00  0.00     0.200 HD
ATOM     10  N16 FTA A   1       8.231  18.197  19.156  1.00  0.00    -0.090 NA
ENDBRANCH   2   5
BRANCH   1  11
ATOM     11  N1  FTA A   1       6.342  17.111  15.493  1.00  0.00    -0.389 N 
ATOM     12  H11 FTA A   1       6.231  18.135  15.471  1.00  0.00     0.159 HD
BRANCH  11  13
ATOM     13  C2  FTA A   1       6.809  16.475  14.311  1.00  0.00     0.028 A 
ATOM     14  C4  FTA A   1       7.550  17.155  13.347  1.00  0.00     0.031 A 
ATOM     15  C6  FTA A   1       7.779  16.541  12.108  1.00  0.00     0.031 A 
ATOM     16  C7  FTA A   1       7.288  15.273  11.808  1.00  0.00     0.032 A 
ATOM     17  C5  FTA A   1       6.575  14.601  12.785  1.00  0.00     0.031 A 
ATOM     18  C3  FTA A   1       6.325  15.198  14.015  1.00  0.00     0.031 A 
BRANCH  16  19
ATOM     19  N8  FTA A   1       7.326  14.722  10.502  1.00  0.00    -0.356 N 
ATOM     20  H1  FTA A   1       6.777  15.199   9.772  1.00  0.00     0.166 HD
BRANCH  19  21
ATOM     21  C24 FTA A   1       8.063  13.562  10.115  1.00  0.00     0.032 A 
ATOM     22  C26 FTA A   1       7.446  12.472   9.548  1.00  0.00     0.029 A 
ATOM     23  C28 FTA A   1       8.183  11.319   9.356  1.00  0.00     0.002 A 
ATOM     24  C30 FTA A   1       9.525  11.232   9.685  1.00  0.00     0.000 A 
ATOM     25  C29 FTA A   1      10.161  12.323  10.215  1.00  0.00     0.002 A 
ATOM     26  C27 FTA A   1       9.416  13.491  10.414  1.00  0.00     0.029 A 
ENDBRANCH  19  21
ENDBRANCH  16  19
ENDBRANCH  11  13
ENDBRANCH   1  11
TORSDOF 5
ENDMDL
MODEL 9
REMARK VINA RESULT:    -5.418      5.611      8.677
REMARK INTER + INTRA:          -8.058
REMARK INTER:                  -6.994
REMARK INTRA:                  -1.064
REMARK UNBOUND:                -1.056
REMARK  5 active torsions:
REMARK  status: ('A' for Active; 'I' for Inactive)
REMARK    1  A    between atoms: N8_1  and  C24_2 
REMARK    2  A    between atoms: N8_1  and  C7_8 
REMARK    3  A    between atoms: C2_13  and  N1_14 
REMARK    4  A    between atoms: N1_14  and  C17_15 
REMARK    5  A    between atoms: C14_16  and  C13_19 
ROOT
ATOM      1  C17 FTA A   1       3.133  15.964  11.737  1.00  0.00     0.142 C 
ATOM      2  C14 FTA A   1       2.847  14.676  12.011  1.00  0.00     0.158 C 
ATOM      3  C18 FTA A   1       1.701  14.345  12.831  1.00  0.00     0.069 C 
ATOM      4  N21 FTA A   1       0.782  14.229  13.550  1.00  0.00    -0.197 NA
ENDROOT
BRANCH   2   5
ATOM      5  C13 FTA A   1       3.704  13.605  11.454  1.00  0.00     0.197 A 
ATOM      6  N15 FTA A   1       5.056  13.408  11.727  1.00  0.00    -0.093 NA
ATOM      7  N19 FTA A   1       5.483  12.327  10.967  1.00  0.00    -0.231 N 
ATOM      8  N20 FTA A   1       4.417  11.847  10.220  1.00  0.00    -0.017 NA
ATOM      9  H15 FTA A   1       6.439  11.944  10.958  1.00  0.00     0.200 HD
ATOM     10  N16 FTA A   1       3.310  12.631  10.530  1.00  0.00    -0.090 NA
ENDBRANCH   2   5
BRANCH   1  11
ATOM     11  N1  FTA A   1       4.373  16.424  11.992  1.00  0.00    -0.389 N 
ATOM     12  H11 FTA A   1       4.975  16.642  11.184  1.00  0.00     0.159 HD
BRANCH  11  13
ATOM     13  C2  FTA A   1       4.915  16.631  13.290  1.00  0.00     0.028 A 
ATOM     14  C4  FTA A   1       6.154  16.118  13.666  1.00  0.00     0.031 A 
ATOM     15  C6  FTA A   1       6.524  16.159  15.018  1.00  0.00     0.031 A 
ATOM     16  C7  FTA A   1       5.692  16.695  15.997  1.00  0.00     0.032 A 
ATOM     17  C5  FTA A   1       4.475  17.223  15.603  1.00  0.00     0.031 A 
ATOM     18  C3  FTA A   1       4.084  17.180  14.271  1.00  0.00     0.031 A 
BRANCH  16  19
ATOM     19  N8  FTA A   1       5.950  16.559  17.385  1.00  0.00    -0.356 N 
ATOM     20  H1  FTA A   1       5.442  15.818  17.890  1.00  0.00     0.166 HD
BRANCH  19  21
ATOM     21  C24 FTA A   1       6.857  17.363  18.140  1.00  0.00     0.032 A 
ATOM     22  C26 FTA A   1       8.217  17.286  17.951  1.00  0.00     0.029 A 
ATOM     23  C28 FTA A   1       9.046  17.959  18.828  1.00  0.00     0.002 A 
ATOM     24  C30 FTA A   1       8.557  18.732  19.868  1.00  0.00     0.000 A 
ATOM     25  C29 FTA A   1       7.204  18.847  20.043  1.00  0.00     0.002 A 
ATOM     26  C27 FTA A   1       6.362  18.164  19.159  1.00  0.00     0.029 A 
ENDBRANCH  19  21
ENDBRANCH  16  19
ENDBRANCH  11  13
ENDBRANCH   1  11
TORSDOF 5
ENDMDL
