MODEL 1
REMARK VINA RESULT:    -7.978      0.000      0.000
REMARK INTER + INTRA:         -11.243
REMARK INTER:                 -10.255
REMARK INTRA:                  -0.988
REMARK UNBOUND:                -1.166
REMARK  5 active torsions:
REMARK  status: ('A' for Active; 'I' for Inactive)
REMARK       I    between atoms: C_2  and  N_3 
REMARK    1  A    between atoms: C_2  and  C_17 
REMARK    2  A    between atoms: N_3  and  C_5 
REMARK    3  A    between atoms: C_8  and  N_9 
REMARK    4  A    between atoms: C_18  and  O_19 
REMARK    5  A    between atoms: C_25  and  C_26 
REMARK       I    between atoms: C_26  and  N_28 
ROOT
HETATM    1  C   UNL     1       3.836   6.989  23.000  0.00  0.00     0.066 A 
HETATM    2  C   UNL     1       5.204   6.748  23.236  0.00  0.00     0.083 A 
HETATM    3  C   UNL     1       6.134   6.637  22.199  0.00  0.00     0.069 A 
HETATM    4  C   UNL     1       5.650   6.789  20.902  0.00  0.00     0.065 A 
HETATM    5  N   UNL     1       6.282   6.760  19.693  0.00  0.00    -0.277 N 
HETATM    6  H   UNL     1       7.272   6.617  19.518  0.00  0.00     0.189 HD
HETATM    7  N   UNL     1       5.475   6.971  18.645  0.00  0.00    -0.168 NA
HETATM    8  C   UNL     1       4.270   7.220  19.195  0.00  0.00     0.157 C 
HETATM    9  C   UNL     1       4.311   7.013  20.610  0.00  0.00     0.029 A 
HETATM   10  C   UNL     1       3.380   7.050  21.670  0.00  0.00     0.036 A 
ENDROOT
BRANCH   1  11
HETATM   11  C   UNL     1       2.903   7.101  24.168  0.00  0.00     0.260 C 
HETATM   12  O   UNL     1       2.377   8.212  24.290  0.00  0.00    -0.267 OA
HETATM   13  N   UNL     1       2.649   6.003  25.019  0.00  0.00    -0.318 N 
HETATM   14  C   UNL     1       2.818   4.616  24.569  0.00  0.00     0.159 C 
BRANCH  13  15
HETATM   15  C   UNL     1       2.147   6.184  26.369  0.00  0.00     0.037 A 
HETATM   16  C   UNL     1       0.786   6.131  26.679  0.00  0.00     0.032 A 
HETATM   17  C   UNL     1       0.313   6.442  27.964  0.00  0.00     0.031 A 
HETATM   18  C   UNL     1       1.166   6.826  29.002  0.00  0.00     0.030 A 
HETATM   19  C   UNL     1       2.530   6.811  28.719  0.00  0.00     0.031 A 
HETATM   20  C   UNL     1       3.009   6.504  27.433  0.00  0.00     0.032 A 
BRANCH  18  21
HETATM   21  N   UNL     1       0.643   7.188  30.229  0.00  0.00    -0.377 N 
HETATM   22  C   UNL     1       0.567   6.263  31.368  0.00  0.00     0.149 C 
HETATM   23  C   UNL     1       1.587   6.626  32.455  0.00  0.00     0.187 C 
HETATM   24  O   UNL     1       1.470   8.002  32.855  0.00  0.00    -0.388 OA
HETATM   25  C   UNL     1       1.703   8.860  31.727  0.00  0.00     0.187 C 
HETATM   26  C   UNL     1       0.681   8.617  30.603  0.00  0.00     0.149 C 
ENDBRANCH  18  21
ENDBRANCH  13  15
ENDBRANCH   1  11
BRANCH   2  27
HETATM   27  O   UNL     1       5.729   6.587  24.495  0.00  0.00    -0.360 OA
HETATM   28  H   UNL     1       5.469   7.375  25.025  0.00  0.00     0.217 HD
ENDBRANCH   2  27
BRANCH   8  29
HETATM   29  C   UNL     1       3.096   7.665  18.415  0.00  0.00     0.275 C 
HETATM   30  O   UNL     1       2.986   8.851  18.094  0.00  0.00    -0.266 OA
HETATM   31  N   UNL     1       2.162   6.706  17.991  0.00  0.00    -0.347 N 
HETATM   32  C   UNL     1       0.899   7.149  17.404  0.00  0.00     0.126 C 
HETATM   33  C   UNL     1       2.292   5.258  18.180  0.00  0.00     0.126 C 
HETATM   34  C   UNL     1       0.589   6.401  16.106  0.00  0.00     0.020 C 
HETATM   35  C   UNL     1       0.648   4.889  16.312  0.00  0.00     0.003 C 
HETATM   36  C   UNL     1       1.997   4.494  16.894  0.00  0.00     0.020 C 
ENDBRANCH   8  29
TORSDOF 5
ENDMDL
MODEL 2
REMARK VINA RESULT:    -7.924      3.319      9.788
REMARK INTER + INTRA:         -11.175
REMARK INTER:                 -10.049
REMARK INTRA:                  -1.126
REMARK UNBOUND:                -1.166
REMARK  5 active torsions:
REMARK  status: ('A' for Active; 'I' for Inactive)
REMARK       I    between atoms: C_2  and  N_3 
REMARK    1  A    between atoms: C_2  and  C_17 
REMARK    2  A    between atoms: N_3  and  C_5 
REMARK    3  A    between atoms: C_8  and  N_9 
REMARK    4  A    between atoms: C_18  and  O_19 
REMARK    5  A    between atoms: C_25  and  C_26 
REMARK       I    between atoms: C_26  and  N_28 
ROOT
HETATM    1  C   UNL     1       3.799   6.953  23.365  0.00  0.00     0.066 A 
HETATM    2  C   UNL     1       4.773   6.519  24.287  0.00  0.00     0.083 A 
HETATM    3  C   UNL     1       4.724   6.859  25.641  0.00  0.00     0.069 A 
HETATM    4  C   UNL     1       3.651   7.645  26.054  0.00  0.00     0.065 A 
HETATM    5  N   UNL     1       3.304   8.126  27.283  0.00  0.00    -0.277 N 
HETATM    6  H   UNL     1       3.793   7.982  28.162  0.00  0.00     0.189 HD
HETATM    7  N   UNL     1       2.172   8.841  27.295  0.00  0.00    -0.168 NA
HETATM    8  C   UNL     1       1.717   8.769  26.028  0.00  0.00     0.157 C 
HETATM    9  C   UNL     1       2.672   8.113  25.188  0.00  0.00     0.029 A 
HETATM   10  C   UNL     1       2.782   7.816  23.812  0.00  0.00     0.036 A 
ENDROOT
BRANCH   1  11
HETATM   11  C   UNL     1       3.919   6.539  21.929  0.00  0.00     0.260 C 
HETATM   12  O   UNL     1       4.737   7.201  21.279  0.00  0.00    -0.267 OA
HETATM   13  N   UNL     1       3.170   5.464  21.405  0.00  0.00    -0.318 N 
HETATM   14  C   UNL     1       2.660   4.384  22.258  0.00  0.00     0.159 C 
BRANCH  13  15
HETATM   15  C   UNL     1       2.913   5.335  19.981  0.00  0.00     0.037 A 
HETATM   16  C   UNL     1       2.329   6.355  19.227  0.00  0.00     0.032 A 
HETATM   17  C   UNL     1       1.968   6.161  17.885  0.00  0.00     0.031 A 
HETATM   18  C   UNL     1       2.163   4.944  17.227  0.00  0.00     0.030 A 
HETATM   19  C   UNL     1       2.811   3.946  17.952  0.00  0.00     0.031 A 
HETATM   20  C   UNL     1       3.172   4.135  19.297  0.00  0.00     0.032 A 
BRANCH  18  21
HETATM   21  N   UNL     1       1.727   4.783  15.926  0.00  0.00    -0.377 N 
HETATM   22  C   UNL     1       1.308   3.485  15.379  0.00  0.00     0.149 C 
HETATM   23  C   UNL     1      -0.212   3.424  15.179  0.00  0.00     0.187 C 
HETATM   24  O   UNL     1      -0.689   4.531  14.396  0.00  0.00    -0.388 OA
HETATM   25  C   UNL     1      -0.380   5.768  15.057  0.00  0.00     0.187 C 
HETATM   26  C   UNL     1       1.136   5.953  15.244  0.00  0.00     0.149 C 
ENDBRANCH  18  21
ENDBRANCH  13  15
ENDBRANCH   1  11
BRANCH   2  27
HETATM   27  O   UNL     1       5.851   5.746  23.929  0.00  0.00    -0.360 OA
HETATM   28  H   UNL     1       5.499   4.891  23.589  0.00  0.00     0.217 HD
ENDBRANCH   2  27
BRANCH   8  29
HETATM   29  C   UNL     1       0.400   9.288  25.605  0.00  0.00     0.275 C 
HETATM   30  O   UNL     1      -0.632   8.751  26.016  0.00  0.00    -0.266 OA
HETATM   31  N   UNL     1       0.351  10.436  24.798  0.00  0.00    -0.347 N 
HETATM   32  C   UNL     1      -0.922  10.838  24.203  0.00  0.00     0.126 C 
HETATM   33  C   UNL     1       1.511  11.238  24.398  0.00  0.00     0.126 C 
HETATM   34  C   UNL     1      -1.193  12.330  24.411  0.00  0.00     0.020 C 
HETATM   35  C   UNL     1      -0.019  13.178  23.927  0.00  0.00     0.003 C 
HETATM   36  C   UNL     1       1.265  12.727  24.607  0.00  0.00     0.020 C 
ENDBRANCH   8  29
TORSDOF 5
ENDMDL
MODEL 3
REMARK VINA RESULT:    -7.753      1.786      2.114
REMARK INTER + INTRA:         -10.959
REMARK INTER:                  -9.776
REMARK INTRA:                  -1.183
REMARK UNBOUND:                -1.166
REMARK  5 active torsions:
REMARK  status: ('A' for Active; 'I' for Inactive)
REMARK       I    between atoms: C_2  and  N_3 
REMARK    1  A    between atoms: C_2  and  C_17 
REMARK    2  A    between atoms: N_3  and  C_5 
REMARK    3  A    between atoms: C_8  and  N_9 
REMARK    4  A    between atoms: C_18  and  O_19 
REMARK    5  A    between atoms: C_25  and  C_26 
REMARK       I    between atoms: C_26  and  N_28 
ROOT
HETATM    1  C   UNL     1       3.547   7.246  22.659  0.00  0.00     0.066 A 
HETATM    2  C   UNL     1       4.061   8.544  22.463  0.00  0.00     0.083 A 
HETATM    3  C   UNL     1       4.607   8.954  21.245  0.00  0.00     0.069 A 
HETATM    4  C   UNL     1       4.613   8.020  20.211  0.00  0.00     0.065 A 
HETATM    5  N   UNL     1       5.046   8.106  18.920  0.00  0.00    -0.277 N 
HETATM    6  H   UNL     1       5.459   8.911  18.460  0.00  0.00     0.189 HD
HETATM    7  N   UNL     1       4.865   6.988  18.204  0.00  0.00    -0.168 NA
HETATM    8  C   UNL     1       4.221   6.153  19.044  0.00  0.00     0.157 C 
HETATM    9  C   UNL     1       4.135   6.725  20.353  0.00  0.00     0.029 A 
HETATM   10  C   UNL     1       3.653   6.311  21.613  0.00  0.00     0.036 A 
ENDROOT
BRANCH   1  11
HETATM   11  C   UNL     1       2.971   6.885  23.996  0.00  0.00     0.260 C 
HETATM   12  O   UNL     1       1.737   6.824  24.014  0.00  0.00    -0.267 OA
HETATM   13  N   UNL     1       3.798   6.616  25.108  0.00  0.00    -0.318 N 
HETATM   14  C   UNL     1       5.183   6.158  24.954  0.00  0.00     0.159 C 
BRANCH  13  15
HETATM   15  C   UNL     1       3.302   6.720  26.470  0.00  0.00     0.037 A 
HETATM   16  C   UNL     1       3.031   5.600  27.259  0.00  0.00     0.032 A 
HETATM   17  C   UNL     1       2.428   5.719  28.520  0.00  0.00     0.031 A 
HETATM   18  C   UNL     1       2.058   6.955  29.058  0.00  0.00     0.030 A 
HETATM   19  C   UNL     1       2.391   8.080  28.308  0.00  0.00     0.031 A 
HETATM   20  C   UNL     1       2.993   7.966  27.042  0.00  0.00     0.032 A 
BRANCH  18  21
HETATM   21  N   UNL     1       1.405   7.013  30.274  0.00  0.00    -0.377 N 
HETATM   22  C   UNL     1       1.713   6.107  31.390  0.00  0.00     0.149 C 
HETATM   23  C   UNL     1       2.451   6.839  32.519  0.00  0.00     0.187 C 
HETATM   24  O   UNL     1       1.741   8.013  32.944  0.00  0.00    -0.388 OA
HETATM   25  C   UNL     1       1.602   8.926  31.844  0.00  0.00     0.187 C 
HETATM   26  C   UNL     1       0.811   8.303  30.681  0.00  0.00     0.149 C 
ENDBRANCH  18  21
ENDBRANCH  13  15
ENDBRANCH   1  11
BRANCH   2  27
HETATM   27  O   UNL     1       4.081   9.498  23.451  0.00  0.00    -0.360 OA
HETATM   28  H   UNL     1       3.453  10.209  23.186  0.00  0.00     0.217 HD
ENDBRANCH   2  27
BRANCH   8  29
HETATM   29  C   UNL     1       3.674   4.844  18.630  0.00  0.00     0.275 C 
HETATM   30  O   UNL     1       4.367   3.829  18.737  0.00  0.00    -0.266 OA
HETATM   31  N   UNL     1       2.342   4.775  18.190  0.00  0.00    -0.347 N 
HETATM   32  C   UNL     1       1.854   3.538  17.584  0.00  0.00     0.126 C 
HETATM   33  C   UNL     1       1.395   5.893  18.186  0.00  0.00     0.126 C 
HETATM   34  C   UNL     1       0.509   3.114  18.179  0.00  0.00     0.020 C 
HETATM   35  C   UNL     1      -0.509   4.250  18.110  0.00  0.00     0.003 C 
HETATM   36  C   UNL     1       0.051   5.493  18.785  0.00  0.00     0.020 C 
ENDBRANCH   8  29
TORSDOF 5
ENDMDL
MODEL 4
REMARK VINA RESULT:    -7.442      3.635     10.714
REMARK INTER + INTRA:         -10.566
REMARK INTER:                  -9.585
REMARK INTRA:                  -0.981
REMARK UNBOUND:                -1.166
REMARK  5 active torsions:
REMARK  status: ('A' for Active; 'I' for Inactive)
REMARK       I    between atoms: C_2  and  N_3 
REMARK    1  A    between atoms: C_2  and  C_17 
REMARK    2  A    between atoms: N_3  and  C_5 
REMARK    3  A    between atoms: C_8  and  N_9 
REMARK    4  A    between atoms: C_18  and  O_19 
REMARK    5  A    between atoms: C_25  and  C_26 
REMARK       I    between atoms: C_26  and  N_28 
ROOT
HETATM    1  C   UNL     1       3.245   5.592  20.839  0.00  0.00     0.066 A 
HETATM    2  C   UNL     1       4.070   4.499  21.174  0.00  0.00     0.083 A 
HETATM    3  C   UNL     1       4.890   4.501  22.306  0.00  0.00     0.069 A 
HETATM    4  C   UNL     1       4.850   5.638  23.109  0.00  0.00     0.065 A 
HETATM    5  N   UNL     1       5.498   5.946  24.270  0.00  0.00    -0.277 N 
HETATM    6  H   UNL     1       6.156   5.366  24.781  0.00  0.00     0.189 HD
HETATM    7  N   UNL     1       5.185   7.148  24.772  0.00  0.00    -0.168 NA
HETATM    8  C   UNL     1       4.236   7.622  23.941  0.00  0.00     0.157 C 
HETATM    9  C   UNL     1       4.069   6.749  22.819  0.00  0.00     0.029 A 
HETATM   10  C   UNL     1       3.303   6.752  21.634  0.00  0.00     0.036 A 
ENDROOT
BRANCH   1  11
HETATM   11  C   UNL     1       2.389   5.509  19.611  0.00  0.00     0.260 C 
HETATM   12  O   UNL     1       1.276   5.007  19.804  0.00  0.00    -0.267 OA
HETATM   13  N   UNL     1       2.836   6.000  18.365  0.00  0.00    -0.318 N 
HETATM   14  C   UNL     1       3.860   7.045  18.263  0.00  0.00     0.159 C 
BRANCH  13  15
HETATM   15  C   UNL     1       2.261   5.538  17.113  0.00  0.00     0.037 A 
HETATM   16  C   UNL     1       1.784   6.414  16.136  0.00  0.00     0.032 A 
HETATM   17  C   UNL     1       1.112   5.947  14.996  0.00  0.00     0.031 A 
HETATM   18  C   UNL     1       0.875   4.589  14.772  0.00  0.00     0.030 A 
HETATM   19  C   UNL     1       1.411   3.706  15.707  0.00  0.00     0.031 A 
HETATM   20  C   UNL     1       2.082   4.168  16.852  0.00  0.00     0.032 A 
BRANCH  18  21
HETATM   21  N   UNL     1       0.148   4.186  13.668  0.00  0.00    -0.377 N 
HETATM   22  C   UNL     1       0.774   3.628  12.461  0.00  0.00     0.149 C 
HETATM   23  C   UNL     1       0.513   2.121  12.338  0.00  0.00     0.187 C 
HETATM   24  O   UNL     1      -0.889   1.816  12.422  0.00  0.00    -0.388 OA
HETATM   25  C   UNL     1      -1.409   2.252  13.688  0.00  0.00     0.187 C 
HETATM   26  C   UNL     1      -1.255   3.771  13.876  0.00  0.00     0.149 C 
ENDBRANCH  18  21
ENDBRANCH  13  15
ENDBRANCH   1  11
BRANCH   2  27
HETATM   27  O   UNL     1       4.146   3.359  20.413  0.00  0.00    -0.360 OA
HETATM   28  H   UNL     1       3.523   3.466  19.658  0.00  0.00     0.217 HD
ENDBRANCH   2  27
BRANCH   8  29
HETATM   29  C   UNL     1       3.478   8.865  24.195  0.00  0.00     0.275 C 
HETATM   30  O   UNL     1       3.902   9.940  23.763  0.00  0.00    -0.266 OA
HETATM   31  N   UNL     1       2.246   8.782  24.863  0.00  0.00    -0.347 N 
HETATM   32  C   UNL     1       1.589  10.011  25.304  0.00  0.00     0.126 C 
HETATM   33  C   UNL     1       1.584   7.538  25.265  0.00  0.00     0.126 C 
HETATM   34  C   UNL     1       0.110  10.029  24.911  0.00  0.00     0.020 C 
HETATM   35  C   UNL     1      -0.606   8.769  25.392  0.00  0.00     0.003 C 
HETATM   36  C   UNL     1       0.111   7.532  24.872  0.00  0.00     0.020 C 
ENDBRANCH   8  29
TORSDOF 5
ENDMDL
MODEL 5
REMARK VINA RESULT:    -7.439      3.640     11.109
REMARK INTER + INTRA:         -10.562
REMARK INTER:                  -9.494
REMARK INTRA:                  -1.068
REMARK UNBOUND:                -1.166
REMARK  5 active torsions:
REMARK  status: ('A' for Active; 'I' for Inactive)
REMARK       I    between atoms: C_2  and  N_3 
REMARK    1  A    between atoms: C_2  and  C_17 
REMARK    2  A    between atoms: N_3  and  C_5 
REMARK    3  A    between atoms: C_8  and  N_9 
REMARK    4  A    between atoms: C_18  and  O_19 
REMARK    5  A    between atoms: C_25  and  C_26 
REMARK       I    between atoms: C_26  and  N_28 
ROOT
HETATM    1  C   UNL     1       3.586   4.943  18.865  0.00  0.00     0.066 A 
HETATM    2  C   UNL     1       4.428   5.877  18.229  0.00  0.00     0.083 A 
HETATM    3  C   UNL     1       5.416   6.583  18.919  0.00  0.00     0.069 A 
HETATM    4  C   UNL     1       5.548   6.315  20.279  0.00  0.00     0.065 A 
HETATM    5  N   UNL     1       6.408   6.807  21.217  0.00  0.00    -0.277 N 
HETATM    6  H   UNL     1       7.147   7.490  21.079  0.00  0.00     0.189 HD
HETATM    7  N   UNL     1       6.244   6.287  22.441  0.00  0.00    -0.168 NA
HETATM    8  C   UNL     1       5.277   5.360  22.284  0.00  0.00     0.157 C 
HETATM    9  C   UNL     1       4.737   5.417  20.960  0.00  0.00     0.029 A 
HETATM   10  C   UNL     1       3.699   4.768  20.257  0.00  0.00     0.036 A 
ENDROOT
BRANCH   1  11
HETATM   11  C   UNL     1       2.553   4.221  18.053  0.00  0.00     0.260 C 
HETATM   12  O   UNL     1       2.868   3.065  17.747  0.00  0.00    -0.267 OA
HETATM   13  N   UNL     1       1.326   4.828  17.709  0.00  0.00    -0.318 N 
HETATM   14  C   UNL     1       0.750   5.919  18.504  0.00  0.00     0.159 C 
BRANCH  13  15
HETATM   15  C   UNL     1       0.534   4.365  16.583  0.00  0.00     0.037 A 
HETATM   16  C   UNL     1       0.496   5.041  15.362  0.00  0.00     0.032 A 
HETATM   17  C   UNL     1      -0.377   4.652  14.334  0.00  0.00     0.031 A 
HETATM   18  C   UNL     1      -1.259   3.576  14.470  0.00  0.00     0.030 A 
HETATM   19  C   UNL     1      -1.174   2.854  15.658  0.00  0.00     0.031 A 
HETATM   20  C   UNL     1      -0.303   3.241  16.691  0.00  0.00     0.032 A 
BRANCH  18  21
HETATM   21  N   UNL     1      -2.146   3.276  13.454  0.00  0.00    -0.377 N 
HETATM   22  C   UNL     1      -3.031   2.103  13.487  0.00  0.00     0.149 C 
HETATM   23  C   UNL     1      -4.492   2.508  13.727  0.00  0.00     0.187 C 
HETATM   24  O   UNL     1      -4.929   3.500  12.783  0.00  0.00    -0.388 OA
HETATM   25  C   UNL     1      -4.119   4.680  12.903  0.00  0.00     0.187 C 
HETATM   26  C   UNL     1      -2.637   4.387  12.613  0.00  0.00     0.149 C 
ENDBRANCH  18  21
ENDBRANCH  13  15
ENDBRANCH   1  11
BRANCH   2  27
HETATM   27  O   UNL     1       4.335   6.179  16.892  0.00  0.00    -0.360 OA
HETATM   28  H   UNL     1       3.428   6.527  16.732  0.00  0.00     0.217 HD
ENDBRANCH   2  27
BRANCH   8  29
HETATM   29  C   UNL     1       4.873   4.418  23.348  0.00  0.00     0.275 C 
HETATM   30  O   UNL     1       5.572   3.432  23.592  0.00  0.00    -0.266 OA
HETATM   31  N   UNL     1       3.731   4.709  24.112  0.00  0.00    -0.347 N 
HETATM   32  C   UNL     1       3.202   3.694  25.021  0.00  0.00     0.126 C 
HETATM   33  C   UNL     1       2.934   5.935  24.008  0.00  0.00     0.126 C 
HETATM   34  C   UNL     1       2.914   4.276  26.406  0.00  0.00     0.020 C 
HETATM   35  C   UNL     1       2.021   5.510  26.313  0.00  0.00     0.003 C 
HETATM   36  C   UNL     1       2.645   6.536  25.378  0.00  0.00     0.020 C 
ENDBRANCH   8  29
TORSDOF 5
ENDMDL
MODEL 6
REMARK VINA RESULT:    -7.435      4.075      9.108
REMARK INTER + INTRA:         -10.557
REMARK INTER:                  -9.526
REMARK INTRA:                  -1.031
REMARK UNBOUND:                -1.166
REMARK  5 active torsions:
REMARK  status: ('A' for Active; 'I' for Inactive)
REMARK       I    between atoms: C_2  and  N_3 
REMARK    1  A    between atoms: C_2  and  C_17 
REMARK    2  A    between atoms: N_3  and  C_5 
REMARK    3  A    between atoms: C_8  and  N_9 
REMARK    4  A    between atoms: C_18  and  O_19 
REMARK    5  A    between atoms: C_25  and  C_26 
REMARK       I    between atoms: C_26  and  N_28 
ROOT
HETATM    1  C   UNL     1       1.590   7.946  27.065  0.00  0.00     0.066 A 
HETATM    2  C   UNL     1       1.596   7.839  28.470  0.00  0.00     0.083 A 
HETATM    3  C   UNL     1       0.720   8.568  29.278  0.00  0.00     0.069 A 
HETATM    4  C   UNL     1      -0.182   9.408  28.630  0.00  0.00     0.065 A 
HETATM    5  N   UNL     1      -1.163  10.225  29.114  0.00  0.00    -0.277 N 
HETATM    6  H   UNL     1      -1.424  10.367  30.084  0.00  0.00     0.189 HD
HETATM    7  N   UNL     1      -1.853  10.875  28.168  0.00  0.00    -0.168 NA
HETATM    8  C   UNL     1      -1.349  10.412  27.007  0.00  0.00     0.157 C 
HETATM    9  C   UNL     1      -0.222   9.564  27.251  0.00  0.00     0.029 A 
HETATM   10  C   UNL     1       0.719   8.871  26.461  0.00  0.00     0.036 A 
ENDROOT
BRANCH   1  11
HETATM   11  C   UNL     1       2.558   7.124  26.268  0.00  0.00     0.260 C 
HETATM   12  O   UNL     1       3.710   7.571  26.255  0.00  0.00    -0.267 OA
HETATM   13  N   UNL     1       2.160   5.932  25.624  0.00  0.00    -0.318 N 
HETATM   14  C   UNL     1       1.006   5.150  26.082  0.00  0.00     0.159 C 
BRANCH  13  15
HETATM   15  C   UNL     1       2.909   5.382  24.508  0.00  0.00     0.037 A 
HETATM   16  C   UNL     1       2.977   6.012  23.263  0.00  0.00     0.032 A 
HETATM   17  C   UNL     1       3.593   5.398  22.162  0.00  0.00     0.031 A 
HETATM   18  C   UNL     1       4.167   4.127  22.239  0.00  0.00     0.030 A 
HETATM   19  C   UNL     1       4.166   3.524  23.495  0.00  0.00     0.031 A 
HETATM   20  C   UNL     1       3.547   4.133  24.601  0.00  0.00     0.032 A 
BRANCH  18  21
HETATM   21  N   UNL     1       4.700   3.538  21.109  0.00  0.00    -0.377 N 
HETATM   22  C   UNL     1       4.373   2.167  20.693  0.00  0.00     0.149 C 
HETATM   23  C   UNL     1       3.474   2.156  19.450  0.00  0.00     0.187 C 
HETATM   24  O   UNL     1       4.035   2.935  18.381  0.00  0.00    -0.388 OA
HETATM   25  C   UNL     1       4.192   4.300  18.801  0.00  0.00     0.187 C 
HETATM   26  C   UNL     1       5.137   4.421  20.008  0.00  0.00     0.149 C 
ENDBRANCH  18  21
ENDBRANCH  13  15
ENDBRANCH   1  11
BRANCH   2  27
HETATM   27  O   UNL     1       2.467   7.028  29.156  0.00  0.00    -0.360 OA
HETATM   28  H   UNL     1       1.939   6.519  29.813  0.00  0.00     0.217 HD
ENDBRANCH   2  27
BRANCH   8  29
HETATM   29  C   UNL     1      -1.919  10.739  25.683  0.00  0.00     0.275 C 
HETATM   30  O   UNL     1      -3.087  10.434  25.426  0.00  0.00    -0.266 OA
HETATM   31  N   UNL     1      -1.136  11.461  24.768  0.00  0.00    -0.347 N 
HETATM   32  C   UNL     1      -1.602  11.610  23.391  0.00  0.00     0.126 C 
HETATM   33  C   UNL     1       0.196  12.008  25.042  0.00  0.00     0.126 C 
HETATM   34  C   UNL     1      -1.503  13.062  22.919  0.00  0.00     0.020 C 
HETATM   35  C   UNL     1      -0.097  13.618  23.131  0.00  0.00     0.003 C 
HETATM   36  C   UNL     1       0.312  13.459  24.588  0.00  0.00     0.020 C 
ENDBRANCH   8  29
TORSDOF 5
ENDMDL
MODEL 7
REMARK VINA RESULT:    -7.293      2.973     10.107
REMARK INTER + INTRA:         -10.378
REMARK INTER:                  -8.986
REMARK INTRA:                  -1.392
REMARK UNBOUND:                -1.166
REMARK  5 active torsions:
REMARK  status: ('A' for Active; 'I' for Inactive)
REMARK       I    between atoms: C_2  and  N_3 
REMARK    1  A    between atoms: C_2  and  C_17 
REMARK    2  A    between atoms: N_3  and  C_5 
REMARK    3  A    between atoms: C_8  and  N_9 
REMARK    4  A    between atoms: C_18  and  O_19 
REMARK    5  A    between atoms: C_25  and  C_26 
REMARK       I    between atoms: C_26  and  N_28 
ROOT
HETATM    1  C   UNL     1       3.743   6.469  22.532  0.00  0.00     0.066 A 
HETATM    2  C   UNL     1       5.111   6.599  22.842  0.00  0.00     0.083 A 
HETATM    3  C   UNL     1       5.566   6.799  24.148  0.00  0.00     0.069 A 
HETATM    4  C   UNL     1       4.600   6.854  25.149  0.00  0.00     0.065 A 
HETATM    5  N   UNL     1       4.708   7.015  26.500  0.00  0.00    -0.277 N 
HETATM    6  H   UNL     1       5.559   7.125  27.041  0.00  0.00     0.189 HD
HETATM    7  N   UNL     1       3.537   6.994  27.151  0.00  0.00    -0.168 NA
HETATM    8  C   UNL     1       2.625   6.739  26.192  0.00  0.00     0.157 C 
HETATM    9  C   UNL     1       3.238   6.747  24.900  0.00  0.00     0.029 A 
HETATM   10  C   UNL     1       2.799   6.616  23.565  0.00  0.00     0.036 A 
ENDROOT
BRANCH   1  11
HETATM   11  C   UNL     1       3.336   6.249  21.106  0.00  0.00     0.260 C 
HETATM   12  O   UNL     1       3.517   7.226  20.372  0.00  0.00    -0.267 OA
HETATM   13  N   UNL     1       2.820   5.009  20.668  0.00  0.00    -0.318 N 
HETATM   14  C   UNL     1       3.120   3.753  21.364  0.00  0.00     0.159 C 
BRANCH  13  15
HETATM   15  C   UNL     1       2.013   4.901  19.465  0.00  0.00     0.037 A 
HETATM   16  C   UNL     1       0.620   5.012  19.482  0.00  0.00     0.032 A 
HETATM   17  C   UNL     1      -0.149   4.772  18.333  0.00  0.00     0.031 A 
HETATM   18  C   UNL     1       0.424   4.404  17.113  0.00  0.00     0.030 A 
HETATM   19  C   UNL     1       1.816   4.362  17.072  0.00  0.00     0.031 A 
HETATM   20  C   UNL     1       2.591   4.599  18.221  0.00  0.00     0.032 A 
BRANCH  18  21
HETATM   21  N   UNL     1      -0.382   4.112  16.030  0.00  0.00    -0.377 N 
HETATM   22  C   UNL     1      -0.340   4.874  14.774  0.00  0.00     0.149 C 
HETATM   23  C   UNL     1       0.313   4.064  13.647  0.00  0.00     0.187 C 
HETATM   24  O   UNL     1      -0.309   2.778  13.488  0.00  0.00    -0.388 OA
HETATM   25  C   UNL     1      -0.186   2.022  14.703  0.00  0.00     0.187 C 
HETATM   26  C   UNL     1      -0.873   2.726  15.886  0.00  0.00     0.149 C 
ENDBRANCH  18  21
ENDBRANCH  13  15
ENDBRANCH   1  11
BRANCH   2  27
HETATM   27  O   UNL     1       6.101   6.555  21.890  0.00  0.00    -0.360 OA
HETATM   28  H   UNL     1       5.806   7.112  21.134  0.00  0.00     0.217 HD
ENDBRANCH   2  27
BRANCH   8  29
HETATM   29  C   UNL     1       1.199   6.472  26.476  0.00  0.00     0.275 C 
HETATM   30  O   UNL     1       0.357   7.348  26.263  0.00  0.00    -0.266 OA
HETATM   31  N   UNL     1       0.824   5.192  26.915  0.00  0.00    -0.347 N 
HETATM   32  C   UNL     1      -0.538   4.972  27.396  0.00  0.00     0.126 C 
HETATM   33  C   UNL     1       1.726   4.043  27.038  0.00  0.00     0.126 C 
HETATM   34  C   UNL     1      -1.160   3.723  26.770  0.00  0.00     0.020 C 
HETATM   35  C   UNL     1      -0.262   2.503  26.959  0.00  0.00     0.003 C 
HETATM   36  C   UNL     1       1.128   2.789  26.410  0.00  0.00     0.020 C 
ENDBRANCH   8  29
TORSDOF 5
ENDMDL
MODEL 8
REMARK VINA RESULT:    -7.252      4.070      5.767
REMARK INTER + INTRA:         -10.327
REMARK INTER:                  -9.182
REMARK INTRA:                  -1.145
REMARK UNBOUND:                -1.166
REMARK  5 active torsions:
REMARK  status: ('A' for Active; 'I' for Inactive)
REMARK       I    between atoms: C_2  and  N_3 
REMARK    1  A    between atoms: C_2  and  C_17 
REMARK    2  A    between atoms: N_3  and  C_5 
REMARK    3  A    between atoms: C_8  and  N_9 
REMARK    4  A    between atoms: C_18  and  O_19 
REMARK    5  A    between atoms: C_25  and  C_26 
REMARK       I    between atoms: C_26  and  N_28 
ROOT
HETATM    1  C   UNL     1       3.962   4.969  24.840  0.00  0.00     0.066 A 
HETATM    2  C   UNL     1       4.932   4.346  25.651  0.00  0.00     0.083 A 
HETATM    3  C   UNL     1       5.534   3.136  25.299  0.00  0.00     0.069 A 
HETATM    4  C   UNL     1       5.142   2.566  24.091  0.00  0.00     0.065 A 
HETATM    5  N   UNL     1       5.542   1.424  23.459  0.00  0.00    -0.277 N 
HETATM    6  H   UNL     1       6.237   0.756  23.775  0.00  0.00     0.189 HD
HETATM    7  N   UNL     1       4.944   1.211  22.279  0.00  0.00    -0.168 NA
HETATM    8  C   UNL     1       4.168   2.297  22.095  0.00  0.00     0.157 C 
HETATM    9  C   UNL     1       4.181   3.128  23.260  0.00  0.00     0.029 A 
HETATM   10  C   UNL     1       3.536   4.313  23.671  0.00  0.00     0.036 A 
ENDROOT
BRANCH   1  11
HETATM   11  C   UNL     1       3.368   6.272  25.285  0.00  0.00     0.260 C 
HETATM   12  O   UNL     1       2.810   6.223  26.387  0.00  0.00    -0.267 OA
HETATM   13  N   UNL     1       3.479   7.441  24.501  0.00  0.00    -0.318 N 
HETATM   14  C   UNL     1       4.562   7.623  23.528  0.00  0.00     0.159 C 
BRANCH  13  15
HETATM   15  C   UNL     1       2.561   8.555  24.659  0.00  0.00     0.037 A 
HETATM   16  C   UNL     1       1.193   8.377  24.884  0.00  0.00     0.032 A 
HETATM   17  C   UNL     1       0.305   9.462  24.899  0.00  0.00     0.031 A 
HETATM   18  C   UNL     1       0.727  10.777  24.686  0.00  0.00     0.030 A 
HETATM   19  C   UNL     1       2.098  10.969  24.533  0.00  0.00     0.031 A 
HETATM   20  C   UNL     1       2.992   9.884  24.513  0.00  0.00     0.032 A 
BRANCH  18  21
HETATM   21  N   UNL     1      -0.199  11.803  24.643  0.00  0.00    -0.377 N 
HETATM   22  C   UNL     1      -0.146  12.884  23.648  0.00  0.00     0.149 C 
HETATM   23  C   UNL     1      -1.262  12.742  22.605  0.00  0.00     0.187 C 
HETATM   24  O   UNL     1      -2.555  12.625  23.223  0.00  0.00    -0.388 OA
HETATM   25  C   UNL     1      -2.590  11.464  24.068  0.00  0.00     0.187 C 
HETATM   26  C   UNL     1      -1.545  11.545  25.194  0.00  0.00     0.149 C 
ENDBRANCH  18  21
ENDBRANCH  13  15
ENDBRANCH   1  11
BRANCH   2  27
HETATM   27  O   UNL     1       5.349   4.866  26.852  0.00  0.00    -0.360 OA
HETATM   28  H   UNL     1       5.090   4.226  27.555  0.00  0.00     0.217 HD
ENDBRANCH   2  27
BRANCH   8  29
HETATM   29  C   UNL     1       3.435   2.571  20.841  0.00  0.00     0.275 C 
HETATM   30  O   UNL     1       2.318   2.078  20.664  0.00  0.00    -0.266 OA
HETATM   31  N   UNL     1       3.999   3.452  19.905  0.00  0.00    -0.347 N 
HETATM   32  C   UNL     1       3.393   3.571  18.580  0.00  0.00     0.126 C 
HETATM   33  C   UNL     1       5.237   4.212  20.099  0.00  0.00     0.126 C 
HETATM   34  C   UNL     1       3.202   5.035  18.179  0.00  0.00     0.020 C 
HETATM   35  C   UNL     1       4.506   5.818  18.306  0.00  0.00     0.003 C 
HETATM   36  C   UNL     1       5.064   5.677  19.715  0.00  0.00     0.020 C 
ENDBRANCH   8  29
TORSDOF 5
ENDMDL
MODEL 9
REMARK VINA RESULT:    -7.234      4.184      9.963
REMARK INTER + INTRA:         -10.303
REMARK INTER:                  -9.137
REMARK INTRA:                  -1.166
REMARK UNBOUND:                -1.166
REMARK  5 active torsions:
REMARK  status: ('A' for Active; 'I' for Inactive)
REMARK       I    between atoms: C_2  and  N_3 
REMARK    1  A    between atoms: C_2  and  C_17 
REMARK    2  A    between atoms: N_3  and  C_5 
REMARK    3  A    between atoms: C_8  and  N_9 
REMARK    4  A    between atoms: C_18  and  O_19 
REMARK    5  A    between atoms: C_25  and  C_26 
REMARK       I    between atoms: C_26  and  N_28 
ROOT
HETATM    1  C   UNL     1       1.685   6.486  18.666  0.00  0.00     0.066 A 
HETATM    2  C   UNL     1       2.053   7.671  17.996  0.00  0.00     0.083 A 
HETATM    3  C   UNL     1       3.055   8.519  18.475  0.00  0.00     0.069 A 
HETATM    4  C   UNL     1       3.694   8.136  19.652  0.00  0.00     0.065 A 
HETATM    5  N   UNL     1       4.706   8.717  20.360  0.00  0.00    -0.277 N 
HETATM    6  H   UNL     1       5.200   9.576  20.138  0.00  0.00     0.189 HD
HETATM    7  N   UNL     1       5.077   8.033  21.450  0.00  0.00    -0.168 NA
HETATM    8  C   UNL     1       4.322   6.917  21.419  0.00  0.00     0.157 C 
HETATM    9  C   UNL     1       3.362   6.989  20.360  0.00  0.00     0.029 A 
HETATM   10  C   UNL     1       2.300   6.185  19.895  0.00  0.00     0.036 A 
ENDROOT
BRANCH   1  11
HETATM   11  C   UNL     1       0.605   5.626  18.083  0.00  0.00     0.260 C 
HETATM   12  O   UNL     1      -0.421   6.242  17.773  0.00  0.00    -0.267 OA
HETATM   13  N   UNL     1       0.787   4.239  17.892  0.00  0.00    -0.318 N 
HETATM   14  C   UNL     1       2.120   3.645  17.737  0.00  0.00     0.159 C 
BRANCH  13  15
HETATM   15  C   UNL     1      -0.340   3.330  17.776  0.00  0.00     0.037 A 
HETATM   16  C   UNL     1      -0.716   2.748  16.563  0.00  0.00     0.032 A 
HETATM   17  C   UNL     1      -1.885   1.981  16.449  0.00  0.00     0.031 A 
HETATM   18  C   UNL     1      -2.742   1.758  17.530  0.00  0.00     0.030 A 
HETATM   19  C   UNL     1      -2.335   2.274  18.758  0.00  0.00     0.031 A 
HETATM   20  C   UNL     1      -1.166   3.046  18.877  0.00  0.00     0.032 A 
BRANCH  18  21
HETATM   21  N   UNL     1      -3.916   1.053  17.348  0.00  0.00    -0.377 N 
HETATM   22  C   UNL     1      -4.662   0.443  18.459  0.00  0.00     0.149 C 
HETATM   23  C   UNL     1      -5.960   1.208  18.750  0.00  0.00     0.187 C 
HETATM   24  O   UNL     1      -6.762   1.362  17.568  0.00  0.00    -0.388 OA
HETATM   25  C   UNL     1      -6.032   2.096  16.573  0.00  0.00     0.187 C 
HETATM   26  C   UNL     1      -4.739   1.370  16.163  0.00  0.00     0.149 C 
ENDBRANCH  18  21
ENDBRANCH  13  15
ENDBRANCH   1  11
BRANCH   2  27
HETATM   27  O   UNL     1       1.451   8.093  16.836  0.00  0.00    -0.360 OA
HETATM   28  H   UNL     1       2.154   8.164  16.149  0.00  0.00     0.217 HD
ENDBRANCH   2  27
BRANCH   8  29
HETATM   29  C   UNL     1       4.503   5.786  22.352  0.00  0.00     0.275 C 
HETATM   30  O   UNL     1       5.344   4.917  22.107  0.00  0.00    -0.266 OA
HETATM   31  N   UNL     1       3.759   5.764  23.543  0.00  0.00    -0.347 N 
HETATM   32  C   UNL     1       3.771   4.560  24.371  0.00  0.00     0.126 C 
HETATM   33  C   UNL     1       2.862   6.830  23.998  0.00  0.00     0.126 C 
HETATM   34  C   UNL     1       4.023   4.893  25.843  0.00  0.00     0.020 C 
HETATM   35  C   UNL     1       3.043   5.949  26.348  0.00  0.00     0.003 C 
HETATM   36  C   UNL     1       3.105   7.184  25.461  0.00  0.00     0.020 C 
ENDBRANCH   8  29
TORSDOF 5
ENDMDL
