MODEL 1
REMARK VINA RESULT:    -7.478      0.000      0.000
REMARK INTER + INTRA:         -10.976
REMARK INTER:                 -10.008
REMARK INTRA:                  -0.968
REMARK UNBOUND:                -0.875
REMARK  7 active torsions:
REMARK  status: ('A' for Active; 'I' for Inactive)
REMARK    1  A    between atoms: C_2  and  C_3 
REMARK    2  A    between atoms: C_3  and  O_4 
REMARK    3  A    between atoms: C_3  and  C_5 
REMARK    4  A    between atoms: C_12  and  C_16 
REMARK    5  A    between atoms: C_13  and  O_15 
REMARK       I    between atoms: C_16  and  N_18 
REMARK    6  A    between atoms: N_18  and  C_20 
REMARK    7  A    between atoms: C_23  and  N_26 
ROOT
HETATM    1  C   UNL     1       4.729   6.525  17.385  0.00  0.00     0.095 A 
HETATM    2  N   UNL     1       3.832   6.236  16.421  0.00  0.00    -0.175 NA
HETATM    3  N   UNL     1       3.384   7.443  16.032  0.00  0.00    -0.277 N 
HETATM    4  H   UNL     1       2.665   7.481  15.316  0.00  0.00     0.189 HD
HETATM    5  C   UNL     1       4.868   7.932  17.565  0.00  0.00     0.022 A 
HETATM    6  C   UNL     1       3.955   8.499  16.691  0.00  0.00     0.065 A 
HETATM    7  C   UNL     1       5.640   8.787  18.379  0.00  0.00     0.035 A 
HETATM    8  C   UNL     1       5.437  10.185  18.352  0.00  0.00     0.066 A 
HETATM    9  C   UNL     1       4.422  10.689  17.529  0.00  0.00     0.083 A 
HETATM   10  C   UNL     1       3.716   9.873  16.629  0.00  0.00     0.069 A 
ENDROOT
BRANCH   8  11
HETATM   11  C   UNL     1       6.257  10.958  19.337  0.00  0.00     0.260 C 
HETATM   12  O   UNL     1       7.303  11.414  18.865  0.00  0.00    -0.267 OA
HETATM   13  N   UNL     1       5.880  11.154  20.684  0.00  0.00    -0.318 N 
HETATM   14  C   UNL     1       4.743  10.508  21.342  0.00  0.00     0.159 C 
BRANCH  13  15
HETATM   15  C   UNL     1       6.671  12.033  21.518  0.00  0.00     0.037 A 
HETATM   16  C   UNL     1       6.286  13.357  21.756  0.00  0.00     0.032 A 
HETATM   17  C   UNL     1       7.059  14.215  22.558  0.00  0.00     0.031 A 
HETATM   18  C   UNL     1       8.256  13.793  23.148  0.00  0.00     0.030 A 
HETATM   19  C   UNL     1       8.612  12.456  22.930  0.00  0.00     0.031 A 
HETATM   20  C   UNL     1       7.835  11.585  22.147  0.00  0.00     0.032 A 
BRANCH  18  21
HETATM   21  N   UNL     1       9.025  14.608  23.951  0.00  0.00    -0.377 N 
HETATM   22  C   UNL     1       8.669  14.936  25.339  0.00  0.00     0.149 C 
HETATM   23  C   UNL     1       9.968  15.019  26.164  0.00  0.00     0.187 C 
HETATM   24  O   UNL     1      10.905  15.960  25.609  0.00  0.00    -0.388 OA
HETATM   25  C   UNL     1      11.231  15.606  24.252  0.00  0.00     0.187 C 
HETATM   26  C   UNL     1       9.975  15.571  23.368  0.00  0.00     0.149 C 
ENDBRANCH  18  21
ENDBRANCH  13  15
ENDBRANCH   8  11
BRANCH   9  27
HETATM   27  O   UNL     1       3.964  11.977  17.593  0.00  0.00    -0.360 OA
HETATM   28  H   UNL     1       3.285  12.004  18.294  0.00  0.00     0.217 HD
ENDBRANCH   9  27
BRANCH   1  29
HETATM   29  C   UNL     1       5.426   5.404  18.108  0.00  0.00     0.172 C 
BRANCH  29  30
HETATM   30  C   UNL     1       4.970   5.255  19.565  0.00  0.00     0.034 C 
HETATM   31  C   UNL     1       5.990   5.751  20.583  0.00  0.00     0.008 C 
ENDBRANCH  29  30
BRANCH  29  32
HETATM   32  O   UNL     1       5.284   4.148  17.432  0.00  0.00    -0.389 OA
HETATM   33  H   UNL     1       5.506   4.303  16.499  0.00  0.00     0.210 HD
ENDBRANCH  29  32
ENDBRANCH   1  29
TORSDOF 7
ENDMDL
MODEL 2
REMARK VINA RESULT:    -7.355      3.239     10.097
REMARK INTER + INTRA:         -10.810
REMARK INTER:                  -9.783
REMARK INTRA:                  -1.027
REMARK UNBOUND:                -0.875
REMARK  7 active torsions:
REMARK  status: ('A' for Active; 'I' for Inactive)
REMARK    1  A    between atoms: C_2  and  C_3 
REMARK    2  A    between atoms: C_3  and  O_4 
REMARK    3  A    between atoms: C_3  and  C_5 
REMARK    4  A    between atoms: C_12  and  C_16 
REMARK    5  A    between atoms: C_13  and  O_15 
REMARK       I    between atoms: C_16  and  N_18 
REMARK    6  A    between atoms: N_18  and  C_20 
REMARK    7  A    between atoms: C_23  and  N_26 
ROOT
HETATM    1  C   UNL     1       3.721  13.597  22.990  0.00  0.00     0.095 A 
HETATM    2  N   UNL     1       4.410  14.557  23.639  0.00  0.00    -0.175 NA
HETATM    3  N   UNL     1       5.649  14.463  23.122  0.00  0.00    -0.277 N 
HETATM    4  H   UNL     1       6.368  15.082  23.483  0.00  0.00     0.189 HD
HETATM    5  C   UNL     1       4.534  12.929  22.029  0.00  0.00     0.022 A 
HETATM    6  C   UNL     1       5.791  13.494  22.164  0.00  0.00     0.065 A 
HETATM    7  C   UNL     1       4.358  11.898  21.082  0.00  0.00     0.035 A 
HETATM    8  C   UNL     1       5.455  11.409  20.337  0.00  0.00     0.066 A 
HETATM    9  C   UNL     1       6.722  11.946  20.599  0.00  0.00     0.083 A 
HETATM   10  C   UNL     1       6.905  13.044  21.454  0.00  0.00     0.069 A 
ENDROOT
BRANCH   8  11
HETATM   11  C   UNL     1       5.141  10.251  19.443  0.00  0.00     0.260 C 
HETATM   12  O   UNL     1       5.607   9.178  19.837  0.00  0.00    -0.267 OA
HETATM   13  N   UNL     1       4.384  10.363  18.255  0.00  0.00    -0.318 N 
HETATM   14  C   UNL     1       3.946  11.623  17.653  0.00  0.00     0.159 C 
BRANCH  13  15
HETATM   15  C   UNL     1       4.018   9.163  17.535  0.00  0.00     0.037 A 
HETATM   16  C   UNL     1       2.890   8.415  17.888  0.00  0.00     0.032 A 
HETATM   17  C   UNL     1       2.539   7.242  17.195  0.00  0.00     0.031 A 
HETATM   18  C   UNL     1       3.305   6.760  16.128  0.00  0.00     0.030 A 
HETATM   19  C   UNL     1       4.412   7.537  15.763  0.00  0.00     0.031 A 
HETATM   20  C   UNL     1       4.758   8.721  16.437  0.00  0.00     0.032 A 
BRANCH  18  21
HETATM   21  N   UNL     1       2.975   5.622  15.422  0.00  0.00    -0.377 N 
HETATM   22  C   UNL     1       3.339   5.417  14.013  0.00  0.00     0.149 C 
HETATM   23  C   UNL     1       3.671   3.926  13.812  0.00  0.00     0.187 C 
HETATM   24  O   UNL     1       2.589   3.069  14.222  0.00  0.00    -0.388 OA
HETATM   25  C   UNL     1       2.262   3.296  15.605  0.00  0.00     0.187 C 
HETATM   26  C   UNL     1       1.861   4.759  15.850  0.00  0.00     0.149 C 
ENDBRANCH  18  21
ENDBRANCH  13  15
ENDBRANCH   8  11
BRANCH   9  27
HETATM   27  O   UNL     1       7.887  11.399  20.134  0.00  0.00    -0.360 OA
HETATM   28  H   UNL     1       8.490  12.140  19.934  0.00  0.00     0.217 HD
ENDBRANCH   9  27
BRANCH   1  29
HETATM   29  C   UNL     1       2.275  13.362  23.337  0.00  0.00     0.172 C 
BRANCH  29  30
HETATM   30  C   UNL     1       1.311  14.187  22.473  0.00  0.00     0.034 C 
HETATM   31  C   UNL     1       0.829  13.460  21.223  0.00  0.00     0.008 C 
ENDBRANCH  29  30
BRANCH  29  32
HETATM   32  O   UNL     1       1.916  11.977  23.265  0.00  0.00    -0.389 OA
HETATM   33  H   UNL     1       2.611  11.532  22.754  0.00  0.00     0.210 HD
ENDBRANCH  29  32
ENDBRANCH   1  29
TORSDOF 7
ENDMDL
MODEL 3
REMARK VINA RESULT:    -7.335      2.407     10.041
REMARK INTER + INTRA:         -10.782
REMARK INTER:                  -9.840
REMARK INTRA:                  -0.942
REMARK UNBOUND:                -0.875
REMARK  7 active torsions:
REMARK  status: ('A' for Active; 'I' for Inactive)
REMARK    1  A    between atoms: C_2  and  C_3 
REMARK    2  A    between atoms: C_3  and  O_4 
REMARK    3  A    between atoms: C_3  and  C_5 
REMARK    4  A    between atoms: C_12  and  C_16 
REMARK    5  A    between atoms: C_13  and  O_15 
REMARK       I    between atoms: C_16  and  N_18 
REMARK    6  A    between atoms: N_18  and  C_20 
REMARK    7  A    between atoms: C_23  and  N_26 
ROOT
HETATM    1  C   UNL     1      11.093  13.969  26.110  0.00  0.00     0.095 A 
HETATM    2  N   UNL     1      11.166  14.784  27.182  0.00  0.00    -0.175 NA
HETATM    3  N   UNL     1       9.943  15.343  27.239  0.00  0.00    -0.277 N 
HETATM    4  H   UNL     1       9.762  16.028  27.965  0.00  0.00     0.189 HD
HETATM    5  C   UNL     1       9.794  13.993  25.523  0.00  0.00     0.022 A 
HETATM    6  C   UNL     1       9.081  14.922  26.262  0.00  0.00     0.065 A 
HETATM    7  C   UNL     1       9.151  13.357  24.440  0.00  0.00     0.035 A 
HETATM    8  C   UNL     1       7.831  13.709  24.078  0.00  0.00     0.066 A 
HETATM    9  C   UNL     1       7.202  14.735  24.795  0.00  0.00     0.083 A 
HETATM   10  C   UNL     1       7.777  15.306  25.942  0.00  0.00     0.069 A 
ENDROOT
BRANCH   8  11
HETATM   11  C   UNL     1       7.312  13.025  22.854  0.00  0.00     0.260 C 
HETATM   12  O   UNL     1       7.884  13.365  21.813  0.00  0.00    -0.267 OA
HETATM   13  N   UNL     1       6.263  12.078  22.872  0.00  0.00    -0.318 N 
HETATM   14  C   UNL     1       5.440  11.757  24.039  0.00  0.00     0.159 C 
BRANCH  13  15
HETATM   15  C   UNL     1       5.928  11.371  21.655  0.00  0.00     0.037 A 
HETATM   16  C   UNL     1       5.097  11.941  20.685  0.00  0.00     0.032 A 
HETATM   17  C   UNL     1       4.762  11.251  19.506  0.00  0.00     0.031 A 
HETATM   18  C   UNL     1       5.234   9.958  19.249  0.00  0.00     0.030 A 
HETATM   19  C   UNL     1       6.093   9.414  20.213  0.00  0.00     0.031 A 
HETATM   20  C   UNL     1       6.448  10.104  21.384  0.00  0.00     0.032 A 
BRANCH  18  21
HETATM   21  N   UNL     1       4.935   9.266  18.095  0.00  0.00    -0.377 N 
HETATM   22  C   UNL     1       5.822   8.247  17.516  0.00  0.00     0.149 C 
HETATM   23  C   UNL     1       4.948   7.130  16.915  0.00  0.00     0.187 C 
HETATM   24  O   UNL     1       4.004   7.636  15.953  0.00  0.00    -0.388 OA
HETATM   25  C   UNL     1       3.152   8.627  16.556  0.00  0.00     0.187 C 
HETATM   26  C   UNL     1       3.972   9.800  17.117  0.00  0.00     0.149 C 
ENDBRANCH  18  21
ENDBRANCH  13  15
ENDBRANCH   8  11
BRANCH   9  27
HETATM   27  O   UNL     1       6.037  15.334  24.397  0.00  0.00    -0.360 OA
HETATM   28  H   UNL     1       5.608  15.685  25.200  0.00  0.00     0.217 HD
ENDBRANCH   9  27
BRANCH   1  29
HETATM   29  C   UNL     1      12.309  13.187  25.692  0.00  0.00     0.172 C 
BRANCH  29  30
HETATM   30  C   UNL     1      13.451  14.080  25.190  0.00  0.00     0.034 C 
HETATM   31  C   UNL     1      13.068  14.966  24.011  0.00  0.00     0.008 C 
ENDBRANCH  29  30
BRANCH  29  32
HETATM   32  O   UNL     1      12.793  12.332  26.734  0.00  0.00    -0.389 OA
HETATM   33  H   UNL     1      12.023  11.863  27.094  0.00  0.00     0.210 HD
ENDBRANCH  29  32
ENDBRANCH   1  29
TORSDOF 7
ENDMDL
MODEL 4
REMARK VINA RESULT:    -7.231      5.685      9.686
REMARK INTER + INTRA:         -10.642
REMARK INTER:                 -10.498
REMARK INTRA:                  -0.144
REMARK UNBOUND:                -0.875
REMARK  7 active torsions:
REMARK  status: ('A' for Active; 'I' for Inactive)
REMARK    1  A    between atoms: C_2  and  C_3 
REMARK    2  A    between atoms: C_3  and  O_4 
REMARK    3  A    between atoms: C_3  and  C_5 
REMARK    4  A    between atoms: C_12  and  C_16 
REMARK    5  A    between atoms: C_13  and  O_15 
REMARK       I    between atoms: C_16  and  N_18 
REMARK    6  A    between atoms: N_18  and  C_20 
REMARK    7  A    between atoms: C_23  and  N_26 
ROOT
HETATM    1  C   UNL     1      11.903  13.798  24.698  0.00  0.00     0.095 A 
HETATM    2  N   UNL     1      13.130  14.245  24.360  0.00  0.00    -0.175 NA
HETATM    3  N   UNL     1      12.880  15.189  23.434  0.00  0.00    -0.277 N 
HETATM    4  H   UNL     1      13.669  15.660  23.005  0.00  0.00     0.189 HD
HETATM    5  C   UNL     1      10.879  14.505  24.001  0.00  0.00     0.022 A 
HETATM    6  C   UNL     1      11.551  15.380  23.164  0.00  0.00     0.065 A 
HETATM    7  C   UNL     1       9.469  14.488  23.966  0.00  0.00     0.035 A 
HETATM    8  C   UNL     1       8.762  15.297  23.048  0.00  0.00     0.066 A 
HETATM    9  C   UNL     1       9.502  16.079  22.151  0.00  0.00     0.083 A 
HETATM   10  C   UNL     1      10.898  16.197  22.239  0.00  0.00     0.069 A 
ENDROOT
BRANCH   8  11
HETATM   11  C   UNL     1       7.278  15.105  23.055  0.00  0.00     0.260 C 
HETATM   12  O   UNL     1       6.639  16.159  22.980  0.00  0.00    -0.267 OA
HETATM   13  N   UNL     1       6.654  13.840  23.141  0.00  0.00    -0.318 N 
HETATM   14  C   UNL     1       7.346  12.576  23.395  0.00  0.00     0.159 C 
BRANCH  13  15
HETATM   15  C   UNL     1       5.217  13.751  22.999  0.00  0.00     0.037 A 
HETATM   16  C   UNL     1       4.356  14.522  23.787  0.00  0.00     0.032 A 
HETATM   17  C   UNL     1       2.959  14.429  23.658  0.00  0.00     0.031 A 
HETATM   18  C   UNL     1       2.360  13.555  22.744  0.00  0.00     0.030 A 
HETATM   19  C   UNL     1       3.234  12.814  21.937  0.00  0.00     0.031 A 
HETATM   20  C   UNL     1       4.631  12.916  22.046  0.00  0.00     0.032 A 
BRANCH  18  21
HETATM   21  N   UNL     1       0.994  13.455  22.586  0.00  0.00    -0.377 N 
HETATM   22  C   UNL     1       0.309  13.742  21.317  0.00  0.00     0.149 C 
HETATM   23  C   UNL     1      -0.868  12.758  21.170  0.00  0.00     0.187 C 
HETATM   24  O   UNL     1      -1.765  12.813  22.295  0.00  0.00    -0.388 OA
HETATM   25  C   UNL     1      -1.061  12.525  23.517  0.00  0.00     0.187 C 
HETATM   26  C   UNL     1       0.088  13.520  23.745  0.00  0.00     0.149 C 
ENDBRANCH  18  21
ENDBRANCH  13  15
ENDBRANCH   8  11
BRANCH   9  27
HETATM   27  O   UNL     1       8.954  16.709  21.066  0.00  0.00    -0.360 OA
HETATM   28  H   UNL     1       8.178  17.205  21.386  0.00  0.00     0.217 HD
ENDBRANCH   9  27
BRANCH   1  29
HETATM   29  C   UNL     1      11.772  12.682  25.698  0.00  0.00     0.172 C 
BRANCH  29  30
HETATM   30  C   UNL     1      11.190  13.146  27.040  0.00  0.00     0.034 C 
HETATM   31  C   UNL     1      11.840  14.411  27.589  0.00  0.00     0.008 C 
ENDBRANCH  29  30
BRANCH  29  32
HETATM   32  O   UNL     1      10.997  11.587  25.195  0.00  0.00    -0.389 OA
HETATM   33  H   UNL     1      10.169  11.961  24.853  0.00  0.00     0.210 HD
ENDBRANCH  29  32
ENDBRANCH   1  29
TORSDOF 7
ENDMDL
MODEL 5
REMARK VINA RESULT:    -7.228      2.435     10.029
REMARK INTER + INTRA:         -10.638
REMARK INTER:                  -9.818
REMARK INTRA:                  -0.820
REMARK UNBOUND:                -0.875
REMARK  7 active torsions:
REMARK  status: ('A' for Active; 'I' for Inactive)
REMARK    1  A    between atoms: C_2  and  C_3 
REMARK    2  A    between atoms: C_3  and  O_4 
REMARK    3  A    between atoms: C_3  and  C_5 
REMARK    4  A    between atoms: C_12  and  C_16 
REMARK    5  A    between atoms: C_13  and  O_15 
REMARK       I    between atoms: C_16  and  N_18 
REMARK    6  A    between atoms: N_18  and  C_20 
REMARK    7  A    between atoms: C_23  and  N_26 
ROOT
HETATM    1  C   UNL     1      11.576  14.019  25.529  0.00  0.00     0.095 A 
HETATM    2  N   UNL     1      12.055  15.203  25.961  0.00  0.00    -0.175 NA
HETATM    3  N   UNL     1      11.574  16.085  25.066  0.00  0.00    -0.277 N 
HETATM    4  H   UNL     1      11.829  17.062  25.171  0.00  0.00     0.189 HD
HETATM    5  C   UNL     1      10.753  14.177  24.376  0.00  0.00     0.022 A 
HETATM    6  C   UNL     1      10.800  15.530  24.082  0.00  0.00     0.065 A 
HETATM    7  C   UNL     1       9.998  13.332  23.536  0.00  0.00     0.035 A 
HETATM    8  C   UNL     1       9.359  13.845  22.384  0.00  0.00     0.066 A 
HETATM    9  C   UNL     1       9.537  15.201  22.080  0.00  0.00     0.083 A 
HETATM   10  C   UNL     1      10.190  16.083  22.955  0.00  0.00     0.069 A 
ENDROOT
BRANCH   8  11
HETATM   11  C   UNL     1       8.676  12.819  21.535  0.00  0.00     0.260 C 
HETATM   12  O   UNL     1       9.436  12.227  20.763  0.00  0.00    -0.267 OA
HETATM   13  N   UNL     1       7.291  12.546  21.601  0.00  0.00    -0.318 N 
HETATM   14  C   UNL     1       6.317  13.321  22.372  0.00  0.00     0.159 C 
BRANCH  13  15
HETATM   15  C   UNL     1       6.753  11.441  20.840  0.00  0.00     0.037 A 
HETATM   16  C   UNL     1       6.648  10.158  21.388  0.00  0.00     0.032 A 
HETATM   17  C   UNL     1       6.134   9.080  20.646  0.00  0.00     0.031 A 
HETATM   18  C   UNL     1       5.713   9.232  19.320  0.00  0.00     0.030 A 
HETATM   19  C   UNL     1       5.791  10.529  18.794  0.00  0.00     0.031 A 
HETATM   20  C   UNL     1       6.285  11.616  19.536  0.00  0.00     0.032 A 
BRANCH  18  21
HETATM   21  N   UNL     1       5.191   8.197  18.575  0.00  0.00    -0.377 N 
HETATM   22  C   UNL     1       4.532   7.028  19.174  0.00  0.00     0.149 C 
HETATM   23  C   UNL     1       3.368   6.606  18.257  0.00  0.00     0.187 C 
HETATM   24  O   UNL     1       3.804   6.350  16.909  0.00  0.00    -0.388 OA
HETATM   25  C   UNL     1       4.441   7.515  16.355  0.00  0.00     0.187 C 
HETATM   26  C   UNL     1       5.651   7.944  17.199  0.00  0.00     0.149 C 
ENDBRANCH  18  21
ENDBRANCH  13  15
ENDBRANCH   8  11
BRANCH   9  27
HETATM   27  O   UNL     1       9.184  15.761  20.882  0.00  0.00    -0.360 OA
HETATM   28  H   UNL     1       8.371  16.278  21.036  0.00  0.00     0.217 HD
ENDBRANCH   9  27
BRANCH   1  29
HETATM   29  C   UNL     1      11.944  12.759  26.265  0.00  0.00     0.172 C 
BRANCH  29  30
HETATM   30  C   UNL     1      13.423  12.713  26.671  0.00  0.00     0.034 C 
HETATM   31  C   UNL     1      13.681  13.152  28.108  0.00  0.00     0.008 C 
ENDBRANCH  29  30
BRANCH  29  32
HETATM   32  O   UNL     1      11.124  12.543  27.420  0.00  0.00    -0.389 OA
HETATM   33  H   UNL     1      10.389  13.175  27.366  0.00  0.00     0.210 HD
ENDBRANCH  29  32
ENDBRANCH   1  29
TORSDOF 7
ENDMDL
MODEL 6
REMARK VINA RESULT:    -7.128      2.661      9.904
REMARK INTER + INTRA:         -10.504
REMARK INTER:                  -9.743
REMARK INTRA:                  -0.760
REMARK UNBOUND:                -0.875
REMARK  7 active torsions:
REMARK  status: ('A' for Active; 'I' for Inactive)
REMARK    1  A    between atoms: C_2  and  C_3 
REMARK    2  A    between atoms: C_3  and  O_4 
REMARK    3  A    between atoms: C_3  and  C_5 
REMARK    4  A    between atoms: C_12  and  C_16 
REMARK    5  A    between atoms: C_13  and  O_15 
REMARK       I    between atoms: C_16  and  N_18 
REMARK    6  A    between atoms: N_18  and  C_20 
REMARK    7  A    between atoms: C_23  and  N_26 
ROOT
HETATM    1  C   UNL     1       5.229  14.659  23.758  0.00  0.00     0.095 A 
HETATM    2  N   UNL     1       6.132  15.509  24.285  0.00  0.00    -0.175 NA
HETATM    3  N   UNL     1       7.251  15.262  23.579  0.00  0.00    -0.277 N 
HETATM    4  H   UNL     1       8.093  15.775  23.819  0.00  0.00     0.189 HD
HETATM    5  C   UNL     1       5.785  13.906  22.683  0.00  0.00     0.022 A 
HETATM    6  C   UNL     1       7.111  14.299  22.615  0.00  0.00     0.065 A 
HETATM    7  C   UNL     1       5.328  12.923  21.780  0.00  0.00     0.035 A 
HETATM    8  C   UNL     1       6.220  12.307  20.873  0.00  0.00     0.066 A 
HETATM    9  C   UNL     1       7.572  12.668  20.929  0.00  0.00     0.083 A 
HETATM   10  C   UNL     1       8.031  13.719  21.740  0.00  0.00     0.069 A 
ENDROOT
BRANCH   8  11
HETATM   11  C   UNL     1       5.619  11.215  20.045  0.00  0.00     0.260 C 
HETATM   12  O   UNL     1       4.878  11.624  19.145  0.00  0.00    -0.267 OA
HETATM   13  N   UNL     1       5.866   9.841  20.263  0.00  0.00    -0.318 N 
HETATM   14  C   UNL     1       6.597   9.289  21.405  0.00  0.00     0.159 C 
BRANCH  13  15
HETATM   15  C   UNL     1       5.349   8.872  19.322  0.00  0.00     0.037 A 
HETATM   16  C   UNL     1       5.827   8.802  18.009  0.00  0.00     0.032 A 
HETATM   17  C   UNL     1       5.318   7.868  17.089  0.00  0.00     0.031 A 
HETATM   18  C   UNL     1       4.302   6.971  17.436  0.00  0.00     0.030 A 
HETATM   19  C   UNL     1       3.857   7.028  18.764  0.00  0.00     0.031 A 
HETATM   20  C   UNL     1       4.374   7.945  19.695  0.00  0.00     0.032 A 
BRANCH  18  21
HETATM   21  N   UNL     1       3.796   6.034  16.560  0.00  0.00    -0.377 N 
HETATM   22  C   UNL     1       3.031   6.390  15.357  0.00  0.00     0.149 C 
HETATM   23  C   UNL     1       3.394   5.393  14.240  0.00  0.00     0.187 C 
HETATM   24  O   UNL     1       3.174   4.027  14.638  0.00  0.00    -0.388 OA
HETATM   25  C   UNL     1       3.940   3.715  15.816  0.00  0.00     0.187 C 
HETATM   26  C   UNL     1       3.570   4.642  16.984  0.00  0.00     0.149 C 
ENDBRANCH  18  21
ENDBRANCH  13  15
ENDBRANCH   8  11
BRANCH   9  27
HETATM   27  O   UNL     1       8.567  11.981  20.288  0.00  0.00    -0.360 OA
HETATM   28  H   UNL     1       8.134  11.351  19.682  0.00  0.00     0.217 HD
ENDBRANCH   9  27
BRANCH   1  29
HETATM   29  C   UNL     1       3.837  14.610  24.329  0.00  0.00     0.172 C 
BRANCH  29  30
HETATM   30  C   UNL     1       2.751  14.903  23.286  0.00  0.00     0.034 C 
HETATM   31  C   UNL     1       1.336  14.605  23.769  0.00  0.00     0.008 C 
ENDBRANCH  29  30
BRANCH  29  32
HETATM   32  O   UNL     1       3.556  13.362  24.973  0.00  0.00    -0.389 OA
HETATM   33  H   UNL     1       3.853  12.660  24.370  0.00  0.00     0.210 HD
ENDBRANCH  29  32
ENDBRANCH   1  29
TORSDOF 7
ENDMDL
MODEL 7
REMARK VINA RESULT:    -7.073      2.116     10.019
REMARK INTER + INTRA:         -10.429
REMARK INTER:                  -9.730
REMARK INTRA:                  -0.699
REMARK UNBOUND:                -0.875
REMARK  7 active torsions:
REMARK  status: ('A' for Active; 'I' for Inactive)
REMARK    1  A    between atoms: C_2  and  C_3 
REMARK    2  A    between atoms: C_3  and  O_4 
REMARK    3  A    between atoms: C_3  and  C_5 
REMARK    4  A    between atoms: C_12  and  C_16 
REMARK    5  A    between atoms: C_13  and  O_15 
REMARK       I    between atoms: C_16  and  N_18 
REMARK    6  A    between atoms: N_18  and  C_20 
REMARK    7  A    between atoms: C_23  and  N_26 
ROOT
HETATM    1  C   UNL     1      10.350  15.023  24.412  0.00  0.00     0.095 A 
HETATM    2  N   UNL     1      10.391  15.587  25.636  0.00  0.00    -0.175 NA
HETATM    3  N   UNL     1       9.375  14.996  26.292  0.00  0.00    -0.277 N 
HETATM    4  H   UNL     1       9.189  15.284  27.247  0.00  0.00     0.189 HD
HETATM    5  C   UNL     1       9.321  14.040  24.323  0.00  0.00     0.022 A 
HETATM    6  C   UNL     1       8.686  14.071  25.554  0.00  0.00     0.065 A 
HETATM    7  C   UNL     1       8.842  13.149  23.341  0.00  0.00     0.035 A 
HETATM    8  C   UNL     1       7.698  12.356  23.584  0.00  0.00     0.066 A 
HETATM    9  C   UNL     1       7.033  12.514  24.807  0.00  0.00     0.083 A 
HETATM   10  C   UNL     1       7.552  13.309  25.841  0.00  0.00     0.069 A 
ENDROOT
BRANCH   8  11
HETATM   11  C   UNL     1       7.246  11.531  22.420  0.00  0.00     0.260 C 
HETATM   12  O   UNL     1       7.991  10.580  22.165  0.00  0.00    -0.267 OA
HETATM   13  N   UNL     1       6.078  11.806  21.673  0.00  0.00    -0.318 N 
HETATM   14  C   UNL     1       5.248  13.002  21.820  0.00  0.00     0.159 C 
BRANCH  13  15
HETATM   15  C   UNL     1       5.654  10.869  20.656  0.00  0.00     0.037 A 
HETATM   16  C   UNL     1       5.758  11.172  19.294  0.00  0.00     0.032 A 
HETATM   17  C   UNL     1       5.337  10.267  18.304  0.00  0.00     0.031 A 
HETATM   18  C   UNL     1       4.782   9.024  18.630  0.00  0.00     0.030 A 
HETATM   19  C   UNL     1       4.716   8.719  19.996  0.00  0.00     0.031 A 
HETATM   20  C   UNL     1       5.153   9.609  20.991  0.00  0.00     0.032 A 
BRANCH  18  21
HETATM   21  N   UNL     1       4.376   8.112  17.680  0.00  0.00    -0.377 N 
HETATM   22  C   UNL     1       5.044   6.819  17.469  0.00  0.00     0.149 C 
HETATM   23  C   UNL     1       3.971   5.772  17.115  0.00  0.00     0.187 C 
HETATM   24  O   UNL     1       3.183   6.166  15.977  0.00  0.00    -0.388 OA
HETATM   25  C   UNL     1       2.542   7.432  16.221  0.00  0.00     0.187 C 
HETATM   26  C   UNL     1       3.574   8.531  16.518  0.00  0.00     0.149 C 
ENDBRANCH  18  21
ENDBRANCH  13  15
ENDBRANCH   8  11
BRANCH   9  27
HETATM   27  O   UNL     1       5.793  11.996  25.068  0.00  0.00    -0.360 OA
HETATM   28  H   UNL     1       5.210  12.270  24.335  0.00  0.00     0.217 HD
ENDBRANCH   9  27
BRANCH   1  29
HETATM   29  C   UNL     1      11.326  15.471  23.358  0.00  0.00     0.172 C 
BRANCH  29  30
HETATM   30  C   UNL     1      12.562  14.567  23.264  0.00  0.00     0.034 C 
HETATM   31  C   UNL     1      13.594  14.819  24.358  0.00  0.00     0.008 C 
ENDBRANCH  29  30
BRANCH  29  32
HETATM   32  O   UNL     1      10.719  15.585  22.065  0.00  0.00    -0.389 OA
HETATM   33  H   UNL     1      10.933  14.771  21.580  0.00  0.00     0.210 HD
ENDBRANCH  29  32
ENDBRANCH   1  29
TORSDOF 7
ENDMDL
MODEL 8
REMARK VINA RESULT:    -7.011      5.814      9.569
REMARK INTER + INTRA:         -10.344
REMARK INTER:                  -9.468
REMARK INTRA:                  -0.876
REMARK UNBOUND:                -0.875
REMARK  7 active torsions:
REMARK  status: ('A' for Active; 'I' for Inactive)
REMARK    1  A    between atoms: C_2  and  C_3 
REMARK    2  A    between atoms: C_3  and  O_4 
REMARK    3  A    between atoms: C_3  and  C_5 
REMARK    4  A    between atoms: C_12  and  C_16 
REMARK    5  A    between atoms: C_13  and  O_15 
REMARK       I    between atoms: C_16  and  N_18 
REMARK    6  A    between atoms: N_18  and  C_20 
REMARK    7  A    between atoms: C_23  and  N_26 
ROOT
HETATM    1  C   UNL     1      11.178  13.003  23.508  0.00  0.00     0.095 A 
HETATM    2  N   UNL     1      12.247  13.514  24.151  0.00  0.00    -0.175 NA
HETATM    3  N   UNL     1      11.703  14.213  25.165  0.00  0.00    -0.277 N 
HETATM    4  H   UNL     1      12.326  14.719  25.786  0.00  0.00     0.189 HD
HETATM    5  C   UNL     1       9.959  13.357  24.157  0.00  0.00     0.022 A 
HETATM    6  C   UNL     1      10.335  14.171  25.212  0.00  0.00     0.065 A 
HETATM    7  C   UNL     1       8.585  13.104  23.960  0.00  0.00     0.035 A 
HETATM    8  C   UNL     1       7.613  13.721  24.779  0.00  0.00     0.066 A 
HETATM    9  C   UNL     1       8.052  14.621  25.759  0.00  0.00     0.083 A 
HETATM   10  C   UNL     1       9.414  14.806  26.047  0.00  0.00     0.069 A 
ENDROOT
BRANCH   8  11
HETATM   11  C   UNL     1       6.196  13.438  24.395  0.00  0.00     0.260 C 
HETATM   12  O   UNL     1       5.776  12.351  24.804  0.00  0.00    -0.267 OA
HETATM   13  N   UNL     1       5.400  14.323  23.633  0.00  0.00    -0.318 N 
HETATM   14  C   UNL     1       5.885  15.542  22.984  0.00  0.00     0.159 C 
BRANCH  13  15
HETATM   15  C   UNL     1       4.000  14.020  23.433  0.00  0.00     0.037 A 
HETATM   16  C   UNL     1       3.576  13.172  22.404  0.00  0.00     0.032 A 
HETATM   17  C   UNL     1       2.214  12.885  22.201  0.00  0.00     0.031 A 
HETATM   18  C   UNL     1       1.216  13.440  23.010  0.00  0.00     0.030 A 
HETATM   19  C   UNL     1       1.657  14.260  24.057  0.00  0.00     0.031 A 
HETATM   20  C   UNL     1       3.017  14.536  24.279  0.00  0.00     0.032 A 
BRANCH  18  21
HETATM   21  N   UNL     1      -0.124  13.163  22.844  0.00  0.00    -0.377 N 
HETATM   22  C   UNL     1      -0.844  13.399  21.585  0.00  0.00     0.149 C 
HETATM   23  C   UNL     1      -1.878  12.271  21.400  0.00  0.00     0.187 C 
HETATM   24  O   UNL     1      -2.772  12.165  22.523  0.00  0.00    -0.388 OA
HETATM   25  C   UNL     1      -2.033  11.931  23.736  0.00  0.00     0.187 C 
HETATM   26  C   UNL     1      -1.028  13.063  24.003  0.00  0.00     0.149 C 
ENDBRANCH  18  21
ENDBRANCH  13  15
ENDBRANCH   8  11
BRANCH   9  27
HETATM   27  O   UNL     1       7.216  15.460  26.445  0.00  0.00    -0.360 OA
HETATM   28  H   UNL     1       6.962  16.175  25.831  0.00  0.00     0.217 HD
ENDBRANCH   9  27
BRANCH   1  29
HETATM   29  C   UNL     1      11.386  12.180  22.266  0.00  0.00     0.172 C 
BRANCH  29  30
HETATM   30  C   UNL     1      10.471  10.950  22.203  0.00  0.00     0.034 C 
HETATM   31  C   UNL     1      10.951   9.781  23.057  0.00  0.00     0.008 C 
ENDBRANCH  29  30
BRANCH  29  32
HETATM   32  O   UNL     1      11.232  12.951  21.068  0.00  0.00    -0.389 OA
HETATM   33  H   UNL     1      11.857  12.590  20.418  0.00  0.00     0.210 HD
ENDBRANCH  29  32
ENDBRANCH   1  29
TORSDOF 7
ENDMDL
MODEL 9
REMARK VINA RESULT:    -6.852      5.131      9.264
REMARK INTER + INTRA:         -10.130
REMARK INTER:                  -9.255
REMARK INTRA:                  -0.875
REMARK UNBOUND:                -0.875
REMARK  7 active torsions:
REMARK  status: ('A' for Active; 'I' for Inactive)
REMARK    1  A    between atoms: C_2  and  C_3 
REMARK    2  A    between atoms: C_3  and  O_4 
REMARK    3  A    between atoms: C_3  and  C_5 
REMARK    4  A    between atoms: C_12  and  C_16 
REMARK    5  A    between atoms: C_13  and  O_15 
REMARK       I    between atoms: C_16  and  N_18 
REMARK    6  A    between atoms: N_18  and  C_20 
REMARK    7  A    between atoms: C_23  and  N_26 
ROOT
HETATM    1  C   UNL     1       9.999  14.179  22.320  0.00  0.00     0.095 A 
HETATM    2  N   UNL     1      10.323  15.401  21.851  0.00  0.00    -0.175 NA
HETATM    3  N   UNL     1       9.196  16.116  22.023  0.00  0.00    -0.277 N 
HETATM    4  H   UNL     1       9.189  17.082  21.712  0.00  0.00     0.189 HD
HETATM    5  C   UNL     1       8.667  14.150  22.828  0.00  0.00     0.022 A 
HETATM    6  C   UNL     1       8.163  15.418  22.589  0.00  0.00     0.065 A 
HETATM    7  C   UNL     1       7.826  13.195  23.437  0.00  0.00     0.035 A 
HETATM    8  C   UNL     1       6.480  13.506  23.734  0.00  0.00     0.066 A 
HETATM    9  C   UNL     1       5.997  14.768  23.366  0.00  0.00     0.083 A 
HETATM   10  C   UNL     1       6.840  15.772  22.862  0.00  0.00     0.069 A 
ENDROOT
BRANCH   8  11
HETATM   11  C   UNL     1       5.681  12.369  24.287  0.00  0.00     0.260 C 
HETATM   12  O   UNL     1       5.679  12.316  25.521  0.00  0.00    -0.267 OA
HETATM   13  N   UNL     1       4.989  11.435  23.483  0.00  0.00    -0.318 N 
HETATM   14  C   UNL     1       5.085  11.346  22.026  0.00  0.00     0.159 C 
BRANCH  13  15
HETATM   15  C   UNL     1       4.132  10.456  24.116  0.00  0.00     0.037 A 
HETATM   16  C   UNL     1       2.738  10.545  24.036  0.00  0.00     0.032 A 
HETATM   17  C   UNL     1       1.904   9.600  24.659  0.00  0.00     0.031 A 
HETATM   18  C   UNL     1       2.423   8.533  25.400  0.00  0.00     0.030 A 
HETATM   19  C   UNL     1       3.821   8.436  25.443  0.00  0.00     0.031 A 
HETATM   20  C   UNL     1       4.662   9.364  24.806  0.00  0.00     0.032 A 
BRANCH  18  21
HETATM   21  N   UNL     1       1.629   7.584  26.007  0.00  0.00    -0.377 N 
HETATM   22  C   UNL     1       2.170   6.464  26.790  0.00  0.00     0.149 C 
HETATM   23  C   UNL     1       1.219   6.195  27.972  0.00  0.00     0.187 C 
HETATM   24  O   UNL     1      -0.131   5.949  27.537  0.00  0.00    -0.388 OA
HETATM   25  C   UNL     1      -0.628   7.067  26.777  0.00  0.00     0.187 C 
HETATM   26  C   UNL     1       0.251   7.339  25.547  0.00  0.00     0.149 C 
ENDBRANCH  18  21
ENDBRANCH  13  15
ENDBRANCH   8  11
BRANCH   9  27
HETATM   27  O   UNL     1       4.670  15.103  23.372  0.00  0.00    -0.360 OA
HETATM   28  H   UNL     1       4.607  16.012  23.721  0.00  0.00     0.217 HD
ENDBRANCH   9  27
BRANCH   1  29
HETATM   29  C   UNL     1      11.012  13.069  22.254  0.00  0.00     0.172 C 
BRANCH  29  30
HETATM   30  C   UNL     1      10.588  11.926  21.322  0.00  0.00     0.034 C 
HETATM   31  C   UNL     1       9.935  12.397  20.028  0.00  0.00     0.008 C 
ENDBRANCH  29  30
BRANCH  29  32
HETATM   32  O   UNL     1      12.312  13.538  21.874  0.00  0.00    -0.389 OA
HETATM   33  H   UNL     1      12.607  12.982  21.134  0.00  0.00     0.210 HD
ENDBRANCH  29  32
ENDBRANCH   1  29
TORSDOF 7
ENDMDL
