MODEL 1
REMARK VINA RESULT:    -8.458      0.000      0.000
REMARK INTER + INTRA:         -12.052
REMARK INTER:                 -10.689
REMARK INTRA:                  -1.363
REMARK UNBOUND:                -1.369
REMARK  5 active torsions:
REMARK  status: ('A' for Active; 'I' for Inactive)
REMARK    1  A    between atoms: C_7  and  C_8 
REMARK    2  A    between atoms: C_8  and  C_9 
REMARK    3  A    between atoms: C_16  and  C_20 
REMARK    4  A    between atoms: C_17  and  O_19 
REMARK       I    between atoms: C_20  and  N_22 
REMARK    5  A    between atoms: N_22  and  C_24 
ROOT
HETATM    1  C   UNL     1      -0.228  15.617  22.577  0.00  0.00     0.071 C 
HETATM    2  N   UNL     1      -1.018  16.391  21.811  0.00  0.00    -0.178 NA
HETATM    3  N   UNL     1      -1.911  15.536  21.296  0.00  0.00    -0.277 N 
HETATM    4  H   UNL     1      -2.627  15.903  20.679  0.00  0.00     0.189 HD
HETATM    5  C   UNL     1      -0.637  14.249  22.536  0.00  0.00     0.020 C 
HETATM    6  C   UNL     1      -1.680  14.227  21.615  0.00  0.00     0.065 C 
HETATM    7  C   UNL     1      -0.214  13.031  23.110  0.00  0.00     0.035 C 
HETATM    8  C   UNL     1      -0.817  11.828  22.693  0.00  0.00     0.066 C 
HETATM    9  C   UNL     1      -1.768  11.852  21.659  0.00  0.00     0.083 C 
HETATM   10  C   UNL     1      -2.266  13.051  21.144  0.00  0.00     0.069 C 
ENDROOT
BRANCH   8  11
HETATM   11  C   UNL     1      -0.428  10.527  23.288  0.00  0.00     0.260 C 
HETATM   12  O   UNL     1       0.471   9.916  22.696  0.00  0.00    -0.267 OA
HETATM   13  N   UNL     1      -1.033  10.044  24.470  0.00  0.00    -0.318 N 
HETATM   14  C   UNL     1      -0.394   8.911  25.138  0.00  0.00     0.159 C 
BRANCH  13  15
HETATM   15  C   UNL     1      -2.292  10.479  25.001  0.00  0.00     0.040 A 
HETATM   16  C   UNL     1      -3.487  10.306  24.293  0.00  0.00     0.072 A 
HETATM   17  C   UNL     1      -4.681  10.806  24.802  0.00  0.00     0.118 A 
HETATM   18  F   UNL     1      -5.811  10.655  24.094  0.00  0.00    -0.206 F 
HETATM   19  C   UNL     1      -4.724  11.449  26.028  0.00  0.00     0.042 A 
HETATM   20  C   UNL     1      -3.562  11.575  26.776  0.00  0.00     0.005 A 
HETATM   21  C   UNL     1      -2.354  11.081  26.271  0.00  0.00     0.030 A 
ENDBRANCH  13  15
ENDBRANCH   8  11
BRANCH   9  22
HETATM   22  O   UNL     1      -2.234  10.712  21.058  0.00  0.00    -0.360 OA
HETATM   23  H   UNL     1      -2.856  10.289  21.691  0.00  0.00     0.217 HD
ENDBRANCH   9  22
BRANCH   1  24
HETATM   24  C   UNL     1       0.995  16.204  23.210  0.00  0.00     0.100 C 
BRANCH  24  25
HETATM   25  C   UNL     1       2.162  15.966  22.286  0.00  0.00    -0.052 A 
HETATM   26  C   UNL     1       3.337  15.377  22.778  0.00  0.00     0.014 A 
HETATM   27  C   UNL     1       4.450  15.185  21.949  0.00  0.00    -0.061 A 
HETATM   28  C   UNL     1       5.741  14.677  22.515  0.00  0.00     0.048 C 
HETATM   29  C   UNL     1       4.369  15.550  20.601  0.00  0.00     0.007 A 
HETATM   30  C   UNL     1       3.191  16.088  20.086  0.00  0.00     0.001 A 
HETATM   31  C   UNL     1       2.094  16.293  20.922  0.00  0.00     0.007 A 
ENDBRANCH  24  25
ENDBRANCH   1  24
TORSDOF 5
ENDMDL
MODEL 2
REMARK VINA RESULT:    -8.353      2.572      3.459
REMARK INTER + INTRA:         -11.919
REMARK INTER:                 -10.389
REMARK INTRA:                  -1.530
REMARK UNBOUND:                -1.369
REMARK  5 active torsions:
REMARK  status: ('A' for Active; 'I' for Inactive)
REMARK    1  A    between atoms: C_7  and  C_8 
REMARK    2  A    between atoms: C_8  and  C_9 
REMARK    3  A    between atoms: C_16  and  C_20 
REMARK    4  A    between atoms: C_17  and  O_19 
REMARK       I    between atoms: C_20  and  N_22 
REMARK    5  A    between atoms: N_22  and  C_24 
ROOT
HETATM    1  C   UNL     1      -1.439  15.911  22.444  0.00  0.00     0.071 C 
HETATM    2  N   UNL     1      -1.933  16.306  21.256  0.00  0.00    -0.178 NA
HETATM    3  N   UNL     1      -3.057  15.590  21.116  0.00  0.00    -0.277 N 
HETATM    4  H   UNL     1      -3.613  15.730  20.281  0.00  0.00     0.189 HD
HETATM    5  C   UNL     1      -2.273  14.925  23.055  0.00  0.00     0.020 C 
HETATM    6  C   UNL     1      -3.266  14.678  22.113  0.00  0.00     0.065 C 
HETATM    7  C   UNL     1      -2.271  14.174  24.250  0.00  0.00     0.035 C 
HETATM    8  C   UNL     1      -3.235  13.162  24.429  0.00  0.00     0.066 C 
HETATM    9  C   UNL     1      -4.126  12.864  23.384  0.00  0.00     0.083 C 
HETATM   10  C   UNL     1      -4.205  13.653  22.235  0.00  0.00     0.069 C 
ENDROOT
BRANCH   8  11
HETATM   11  C   UNL     1      -3.292  12.367  25.678  0.00  0.00     0.260 C 
HETATM   12  O   UNL     1      -4.112  12.753  26.521  0.00  0.00    -0.267 OA
HETATM   13  N   UNL     1      -2.477  11.228  25.868  0.00  0.00    -0.318 N 
HETATM   14  C   UNL     1      -2.804  10.347  26.989  0.00  0.00     0.159 C 
BRANCH  13  15
HETATM   15  C   UNL     1      -1.279  10.929  25.140  0.00  0.00     0.040 A 
HETATM   16  C   UNL     1      -0.200  11.820  25.104  0.00  0.00     0.072 A 
HETATM   17  C   UNL     1       0.919  11.534  24.329  0.00  0.00     0.118 A 
HETATM   18  F   UNL     1       1.929  12.416  24.283  0.00  0.00    -0.206 F 
HETATM   19  C   UNL     1       1.009  10.354  23.609  0.00  0.00     0.042 A 
HETATM   20  C   UNL     1      -0.021   9.427  23.682  0.00  0.00     0.005 A 
HETATM   21  C   UNL     1      -1.153   9.707  24.455  0.00  0.00     0.030 A 
ENDBRANCH  13  15
ENDBRANCH   8  11
BRANCH   9  22
HETATM   22  O   UNL     1      -4.940  11.761  23.401  0.00  0.00    -0.360 OA
HETATM   23  H   UNL     1      -5.127  11.530  22.464  0.00  0.00     0.217 HD
ENDBRANCH   9  22
BRANCH   1  24
HETATM   24  C   UNL     1      -0.091  16.391  22.882  0.00  0.00     0.100 C 
BRANCH  24  25
HETATM   25  C   UNL     1       0.949  15.462  22.308  0.00  0.00    -0.052 A 
HETATM   26  C   UNL     1       2.308  15.674  22.585  0.00  0.00     0.014 A 
HETATM   27  C   UNL     1       3.295  14.850  22.028  0.00  0.00    -0.061 A 
HETATM   28  C   UNL     1       4.747  15.163  22.225  0.00  0.00     0.048 C 
HETATM   29  C   UNL     1       2.911  13.777  21.216  0.00  0.00     0.007 A 
HETATM   30  C   UNL     1       1.562  13.524  20.974  0.00  0.00     0.001 A 
HETATM   31  C   UNL     1       0.587  14.359  21.518  0.00  0.00     0.007 A 
ENDBRANCH  24  25
ENDBRANCH   1  24
TORSDOF 5
ENDMDL
MODEL 3
REMARK VINA RESULT:    -8.306      3.012      4.651
REMARK INTER + INTRA:         -11.860
REMARK INTER:                 -10.411
REMARK INTRA:                  -1.449
REMARK UNBOUND:                -1.369
REMARK  5 active torsions:
REMARK  status: ('A' for Active; 'I' for Inactive)
REMARK    1  A    between atoms: C_7  and  C_8 
REMARK    2  A    between atoms: C_8  and  C_9 
REMARK    3  A    between atoms: C_16  and  C_20 
REMARK    4  A    between atoms: C_17  and  O_19 
REMARK       I    between atoms: C_20  and  N_22 
REMARK    5  A    between atoms: N_22  and  C_24 
ROOT
HETATM    1  C   UNL     1      -2.487  12.060  22.691  0.00  0.00     0.071 C 
HETATM    2  N   UNL     1      -3.603  12.525  22.102  0.00  0.00    -0.178 NA
HETATM    3  N   UNL     1      -4.528  12.472  23.068  0.00  0.00    -0.277 N 
HETATM    4  H   UNL     1      -5.467  12.787  22.852  0.00  0.00     0.189 HD
HETATM    5  C   UNL     1      -2.724  11.707  24.055  0.00  0.00     0.020 C 
HETATM    6  C   UNL     1      -4.090  11.904  24.231  0.00  0.00     0.065 C 
HETATM    7  C   UNL     1      -1.969  11.188  25.129  0.00  0.00     0.035 C 
HETATM    8  C   UNL     1      -2.626  10.833  26.324  0.00  0.00     0.066 C 
HETATM    9  C   UNL     1      -4.027  10.924  26.397  0.00  0.00     0.083 C 
HETATM   10  C   UNL     1      -4.780  11.519  25.382  0.00  0.00     0.069 C 
ENDROOT
BRANCH   8  11
HETATM   11  C   UNL     1      -1.874  10.313  27.490  0.00  0.00     0.260 C 
HETATM   12  O   UNL     1      -2.217  10.761  28.591  0.00  0.00    -0.267 OA
HETATM   13  N   UNL     1      -0.852   9.349  27.340  0.00  0.00    -0.318 N 
HETATM   14  C   UNL     1      -0.371   8.685  28.552  0.00  0.00     0.159 C 
BRANCH  13  15
HETATM   15  C   UNL     1      -0.153   9.056  26.123  0.00  0.00     0.040 A 
HETATM   16  C   UNL     1      -0.454   7.924  25.357  0.00  0.00     0.072 A 
HETATM   17  C   UNL     1       0.292   7.628  24.222  0.00  0.00     0.118 A 
HETATM   18  F   UNL     1       0.006   6.521  23.518  0.00  0.00    -0.206 F 
HETATM   19  C   UNL     1       1.319   8.457  23.803  0.00  0.00     0.042 A 
HETATM   20  C   UNL     1       1.594   9.618  24.511  0.00  0.00     0.005 A 
HETATM   21  C   UNL     1       0.852   9.923  25.658  0.00  0.00     0.030 A 
ENDBRANCH  13  15
ENDBRANCH   8  11
BRANCH   9  22
HETATM   22  O   UNL     1      -4.748  10.399  27.437  0.00  0.00    -0.360 OA
HETATM   23  H   UNL     1      -5.516   9.929  27.044  0.00  0.00     0.217 HD
ENDBRANCH   9  22
BRANCH   1  24
HETATM   24  C   UNL     1      -1.256  11.829  21.870  0.00  0.00     0.100 C 
BRANCH  24  25
HETATM   25  C   UNL     1      -0.280  12.941  22.164  0.00  0.00    -0.052 A 
HETATM   26  C   UNL     1       0.769  12.731  23.072  0.00  0.00     0.014 A 
HETATM   27  C   UNL     1       1.662  13.761  23.393  0.00  0.00    -0.061 A 
HETATM   28  C   UNL     1       2.697  13.565  24.459  0.00  0.00     0.048 C 
HETATM   29  C   UNL     1       1.525  15.004  22.766  0.00  0.00     0.007 A 
HETATM   30  C   UNL     1       0.519  15.211  21.824  0.00  0.00     0.001 A 
HETATM   31  C   UNL     1      -0.377  14.186  21.523  0.00  0.00     0.007 A 
ENDBRANCH  24  25
ENDBRANCH   1  24
TORSDOF 5
ENDMDL
MODEL 4
REMARK VINA RESULT:    -8.281      3.587      6.563
REMARK INTER + INTRA:         -11.828
REMARK INTER:                 -10.837
REMARK INTRA:                  -0.992
REMARK UNBOUND:                -1.369
REMARK  5 active torsions:
REMARK  status: ('A' for Active; 'I' for Inactive)
REMARK    1  A    between atoms: C_7  and  C_8 
REMARK    2  A    between atoms: C_8  and  C_9 
REMARK    3  A    between atoms: C_16  and  C_20 
REMARK    4  A    between atoms: C_17  and  O_19 
REMARK       I    between atoms: C_20  and  N_22 
REMARK    5  A    between atoms: N_22  and  C_24 
ROOT
HETATM    1  C   UNL     1      -2.410  12.145  22.470  0.00  0.00     0.071 C 
HETATM    2  N   UNL     1      -3.054  10.997  22.193  0.00  0.00    -0.178 NA
HETATM    3  N   UNL     1      -3.522  10.591  23.380  0.00  0.00    -0.277 N 
HETATM    4  H   UNL     1      -4.059   9.732  23.415  0.00  0.00     0.189 HD
HETATM    5  C   UNL     1      -2.478  12.459  23.862  0.00  0.00     0.020 C 
HETATM    6  C   UNL     1      -3.132  11.371  24.432  0.00  0.00     0.065 C 
HETATM    7  C   UNL     1      -2.012  13.489  24.708  0.00  0.00     0.035 C 
HETATM    8  C   UNL     1      -2.171  13.359  26.102  0.00  0.00     0.066 C 
HETATM    9  C   UNL     1      -2.714  12.175  26.630  0.00  0.00     0.083 C 
HETATM   10  C   UNL     1      -3.263  11.187  25.809  0.00  0.00     0.069 C 
ENDROOT
BRANCH   8  11
HETATM   11  C   UNL     1      -1.727  14.427  27.029  0.00  0.00     0.260 C 
HETATM   12  O   UNL     1      -2.475  14.646  27.990  0.00  0.00    -0.267 OA
HETATM   13  N   UNL     1      -0.512  15.119  26.831  0.00  0.00    -0.318 N 
HETATM   14  C   UNL     1      -0.016  15.938  27.936  0.00  0.00     0.159 C 
BRANCH  13  15
HETATM   15  C   UNL     1       0.212  15.197  25.595  0.00  0.00     0.040 A 
HETATM   16  C   UNL     1       1.393  14.474  25.389  0.00  0.00     0.072 A 
HETATM   17  C   UNL     1       2.111  14.628  24.209  0.00  0.00     0.118 A 
HETATM   18  F   UNL     1       3.257  13.948  24.043  0.00  0.00    -0.206 F 
HETATM   19  C   UNL     1       1.663  15.465  23.200  0.00  0.00     0.042 A 
HETATM   20  C   UNL     1       0.461  16.142  23.357  0.00  0.00     0.005 A 
HETATM   21  C   UNL     1      -0.267  15.998  24.543  0.00  0.00     0.030 A 
ENDBRANCH  13  15
ENDBRANCH   8  11
BRANCH   9  22
HETATM   22  O   UNL     1      -2.701  11.890  27.970  0.00  0.00    -0.360 OA
HETATM   23  H   UNL     1      -3.363  11.178  28.117  0.00  0.00     0.217 HD
ENDBRANCH   9  22
BRANCH   1  24
HETATM   24  C   UNL     1      -1.618  12.829  21.399  0.00  0.00     0.100 C 
BRANCH  24  25
HETATM   25  C   UNL     1      -2.484  13.900  20.785  0.00  0.00    -0.052 A 
HETATM   26  C   UNL     1      -3.615  13.541  20.035  0.00  0.00     0.014 A 
HETATM   27  C   UNL     1      -4.410  14.516  19.419  0.00  0.00    -0.061 A 
HETATM   28  C   UNL     1      -5.537  14.118  18.515  0.00  0.00     0.048 C 
HETATM   29  C   UNL     1      -4.091  15.868  19.592  0.00  0.00     0.007 A 
HETATM   30  C   UNL     1      -3.002  16.240  20.377  0.00  0.00     0.001 A 
HETATM   31  C   UNL     1      -2.204  15.263  20.971  0.00  0.00     0.007 A 
ENDBRANCH  24  25
ENDBRANCH   1  24
TORSDOF 5
ENDMDL
MODEL 5
REMARK VINA RESULT:    -8.275      0.911      1.273
REMARK INTER + INTRA:         -11.820
REMARK INTER:                 -10.345
REMARK INTRA:                  -1.476
REMARK UNBOUND:                -1.369
REMARK  5 active torsions:
REMARK  status: ('A' for Active; 'I' for Inactive)
REMARK    1  A    between atoms: C_7  and  C_8 
REMARK    2  A    between atoms: C_8  and  C_9 
REMARK    3  A    between atoms: C_16  and  C_20 
REMARK    4  A    between atoms: C_17  and  O_19 
REMARK       I    between atoms: C_20  and  N_22 
REMARK    5  A    between atoms: N_22  and  C_24 
ROOT
HETATM    1  C   UNL     1      -0.126  15.600  22.479  0.00  0.00     0.071 C 
HETATM    2  N   UNL     1      -0.875  16.391  21.690  0.00  0.00    -0.178 NA
HETATM    3  N   UNL     1      -1.780  15.559  21.158  0.00  0.00    -0.277 N 
HETATM    4  H   UNL     1      -2.470  15.943  20.523  0.00  0.00     0.189 HD
HETATM    5  C   UNL     1      -0.573  14.244  22.434  0.00  0.00     0.020 C 
HETATM    6  C   UNL     1      -1.594  14.246  21.489  0.00  0.00     0.065 C 
HETATM    7  C   UNL     1      -0.198  13.017  23.024  0.00  0.00     0.035 C 
HETATM    8  C   UNL     1      -0.826  11.829  22.599  0.00  0.00     0.066 C 
HETATM    9  C   UNL     1      -1.751  11.875  21.543  0.00  0.00     0.083 C 
HETATM   10  C   UNL     1      -2.203  13.084  21.010  0.00  0.00     0.069 C 
ENDROOT
BRANCH   8  11
HETATM   11  C   UNL     1      -0.488  10.521  23.209  0.00  0.00     0.260 C 
HETATM   12  O   UNL     1       0.349   9.846  22.597  0.00  0.00    -0.267 OA
HETATM   13  N   UNL     1      -1.071  10.100  24.425  0.00  0.00    -0.318 N 
HETATM   14  C   UNL     1      -0.471   8.947  25.095  0.00  0.00     0.159 C 
BRANCH  13  15
HETATM   15  C   UNL     1      -2.280  10.620  24.996  0.00  0.00     0.040 A 
HETATM   16  C   UNL     1      -2.271  11.371  26.177  0.00  0.00     0.072 A 
HETATM   17  C   UNL     1      -3.466  11.798  26.744  0.00  0.00     0.118 A 
HETATM   18  F   UNL     1      -3.438  12.490  27.894  0.00  0.00    -0.206 F 
HETATM   19  C   UNL     1      -4.684  11.525  26.141  0.00  0.00     0.042 A 
HETATM   20  C   UNL     1      -4.712  10.838  24.936  0.00  0.00     0.005 A 
HETATM   21  C   UNL     1      -3.515  10.400  24.359  0.00  0.00     0.030 A 
ENDBRANCH  13  15
ENDBRANCH   8  11
BRANCH   9  22
HETATM   22  O   UNL     1      -2.236  10.745  20.937  0.00  0.00    -0.360 OA
HETATM   23  H   UNL     1      -3.094  10.536  21.367  0.00  0.00     0.217 HD
ENDBRANCH   9  22
BRANCH   1  24
HETATM   24  C   UNL     1       1.098  16.155  23.137  0.00  0.00     0.100 C 
BRANCH  24  25
HETATM   25  C   UNL     1       2.274  15.913  22.224  0.00  0.00    -0.052 A 
HETATM   26  C   UNL     1       3.435  15.304  22.723  0.00  0.00     0.014 A 
HETATM   27  C   UNL     1       4.555  15.108  21.904  0.00  0.00    -0.061 A 
HETATM   28  C   UNL     1       5.833  14.576  22.479  0.00  0.00     0.048 C 
HETATM   29  C   UNL     1       4.495  15.490  20.560  0.00  0.00     0.007 A 
HETATM   30  C   UNL     1       3.330  16.049  20.038  0.00  0.00     0.001 A 
HETATM   31  C   UNL     1       2.226  16.257  20.864  0.00  0.00     0.007 A 
ENDBRANCH  24  25
ENDBRANCH   1  24
TORSDOF 5
ENDMDL
MODEL 6
REMARK VINA RESULT:    -8.245      2.967      6.830
REMARK INTER + INTRA:         -11.783
REMARK INTER:                 -10.001
REMARK INTRA:                  -1.782
REMARK UNBOUND:                -1.369
REMARK  5 active torsions:
REMARK  status: ('A' for Active; 'I' for Inactive)
REMARK    1  A    between atoms: C_7  and  C_8 
REMARK    2  A    between atoms: C_8  and  C_9 
REMARK    3  A    between atoms: C_16  and  C_20 
REMARK    4  A    between atoms: C_17  and  O_19 
REMARK       I    between atoms: C_20  and  N_22 
REMARK    5  A    between atoms: N_22  and  C_24 
ROOT
HETATM    1  C   UNL     1      -2.602  11.977  26.493  0.00  0.00     0.071 C 
HETATM    2  N   UNL     1      -3.209  12.642  27.492  0.00  0.00    -0.178 NA
HETATM    3  N   UNL     1      -2.688  13.875  27.427  0.00  0.00    -0.277 N 
HETATM    4  H   UNL     1      -3.009  14.568  28.092  0.00  0.00     0.189 HD
HETATM    5  C   UNL     1      -1.681  12.813  25.792  0.00  0.00     0.020 C 
HETATM    6  C   UNL     1      -1.700  14.014  26.493  0.00  0.00     0.065 C 
HETATM    7  C   UNL     1      -0.795  12.678  24.701  0.00  0.00     0.035 C 
HETATM    8  C   UNL     1       0.081  13.738  24.391  0.00  0.00     0.066 C 
HETATM    9  C   UNL     1       0.115  14.873  25.219  0.00  0.00     0.083 C 
HETATM   10  C   UNL     1      -0.814  15.065  26.244  0.00  0.00     0.069 C 
ENDROOT
BRANCH   8  11
HETATM   11  C   UNL     1       1.009  13.656  23.238  0.00  0.00     0.260 C 
HETATM   12  O   UNL     1       2.196  13.450  23.520  0.00  0.00    -0.267 OA
HETATM   13  N   UNL     1       0.547  13.780  21.908  0.00  0.00    -0.318 N 
HETATM   14  C   UNL     1       1.469  13.400  20.838  0.00  0.00     0.159 C 
BRANCH  13  15
HETATM   15  C   UNL     1      -0.697  14.369  21.508  0.00  0.00     0.040 A 
HETATM   16  C   UNL     1      -1.795  13.585  21.134  0.00  0.00     0.072 A 
HETATM   17  C   UNL     1      -2.963  14.187  20.680  0.00  0.00     0.118 A 
HETATM   18  F   UNL     1      -3.993  13.416  20.297  0.00  0.00    -0.206 F 
HETATM   19  C   UNL     1      -3.083  15.566  20.621  0.00  0.00     0.042 A 
HETATM   20  C   UNL     1      -2.031  16.363  21.048  0.00  0.00     0.005 A 
HETATM   21  C   UNL     1      -0.849  15.768  21.502  0.00  0.00     0.030 A 
ENDBRANCH  13  15
ENDBRANCH   8  11
BRANCH   9  22
HETATM   22  O   UNL     1       1.080  15.839  25.109  0.00  0.00    -0.360 OA
HETATM   23  H   UNL     1       1.185  16.031  24.151  0.00  0.00     0.217 HD
ENDBRANCH   9  22
BRANCH   1  24
HETATM   24  C   UNL     1      -2.823  10.504  26.343  0.00  0.00     0.100 C 
BRANCH  24  25
HETATM   25  C   UNL     1      -1.539   9.797  26.701  0.00  0.00    -0.052 A 
HETATM   26  C   UNL     1      -1.195   9.613  28.049  0.00  0.00     0.014 A 
HETATM   27  C   UNL     1       0.013   8.998  28.406  0.00  0.00    -0.061 A 
HETATM   28  C   UNL     1       0.431   8.923  29.843  0.00  0.00     0.048 C 
HETATM   29  C   UNL     1       0.864   8.528  27.401  0.00  0.00     0.007 A 
HETATM   30  C   UNL     1       0.510   8.658  26.060  0.00  0.00     0.001 A 
HETATM   31  C   UNL     1      -0.685   9.287  25.711  0.00  0.00     0.007 A 
ENDBRANCH  24  25
ENDBRANCH   1  24
TORSDOF 5
ENDMDL
MODEL 7
REMARK VINA RESULT:    -8.095      3.038      5.008
REMARK INTER + INTRA:         -11.594
REMARK INTER:                 -10.577
REMARK INTRA:                  -1.016
REMARK UNBOUND:                -1.369
REMARK  5 active torsions:
REMARK  status: ('A' for Active; 'I' for Inactive)
REMARK    1  A    between atoms: C_7  and  C_8 
REMARK    2  A    between atoms: C_8  and  C_9 
REMARK    3  A    between atoms: C_16  and  C_20 
REMARK    4  A    between atoms: C_17  and  O_19 
REMARK       I    between atoms: C_20  and  N_22 
REMARK    5  A    between atoms: N_22  and  C_24 
ROOT
HETATM    1  C   UNL     1       0.603  14.902  23.053  0.00  0.00     0.071 C 
HETATM    2  N   UNL     1       1.580  15.630  23.624  0.00  0.00    -0.178 NA
HETATM    3  N   UNL     1       1.261  15.641  24.925  0.00  0.00    -0.277 N 
HETATM    4  H   UNL     1       1.872  16.134  25.565  0.00  0.00     0.189 HD
HETATM    5  C   UNL     1      -0.347  14.452  24.021  0.00  0.00     0.020 C 
HETATM    6  C   UNL     1       0.070  15.036  25.213  0.00  0.00     0.065 C 
HETATM    7  C   UNL     1      -1.532  13.685  24.019  0.00  0.00     0.035 C 
HETATM    8  C   UNL     1      -2.285  13.580  25.205  0.00  0.00     0.066 C 
HETATM    9  C   UNL     1      -1.890  14.304  26.343  0.00  0.00     0.083 C 
HETATM   10  C   UNL     1      -0.676  14.992  26.393  0.00  0.00     0.069 C 
ENDROOT
BRANCH   8  11
HETATM   11  C   UNL     1      -3.520  12.762  25.262  0.00  0.00     0.260 C 
HETATM   12  O   UNL     1      -4.581  13.397  25.307  0.00  0.00    -0.267 OA
HETATM   13  N   UNL     1      -3.473  11.350  25.235  0.00  0.00    -0.318 N 
HETATM   14  C   UNL     1      -4.730  10.640  25.002  0.00  0.00     0.159 C 
BRANCH  13  15
HETATM   15  C   UNL     1      -2.327  10.547  25.549  0.00  0.00     0.040 A 
HETATM   16  C   UNL     1      -1.532   9.980  24.547  0.00  0.00     0.072 A 
HETATM   17  C   UNL     1      -0.471   9.146  24.882  0.00  0.00     0.118 A 
HETATM   18  F   UNL     1       0.261   8.588  23.905  0.00  0.00    -0.206 F 
HETATM   19  C   UNL     1      -0.155   8.886  26.206  0.00  0.00     0.042 A 
HETATM   20  C   UNL     1      -0.891   9.489  27.216  0.00  0.00     0.005 A 
HETATM   21  C   UNL     1      -1.963  10.326  26.889  0.00  0.00     0.030 A 
ENDBRANCH  13  15
ENDBRANCH   8  11
BRANCH   9  22
HETATM   22  O   UNL     1      -2.682  14.422  27.455  0.00  0.00    -0.360 OA
HETATM   23  H   UNL     1      -2.597  15.350  27.769  0.00  0.00     0.217 HD
ENDBRANCH   9  22
BRANCH   1  24
HETATM   24  C   UNL     1       0.537  14.790  21.562  0.00  0.00     0.100 C 
BRANCH  24  25
HETATM   25  C   UNL     1      -0.888  14.481  21.177  0.00  0.00    -0.052 A 
HETATM   26  C   UNL     1      -1.784  15.527  20.908  0.00  0.00     0.014 A 
HETATM   27  C   UNL     1      -3.123  15.266  20.591  0.00  0.00    -0.061 A 
HETATM   28  C   UNL     1      -4.100  16.391  20.433  0.00  0.00     0.048 C 
HETATM   29  C   UNL     1      -3.559  13.940  20.503  0.00  0.00     0.007 A 
HETATM   30  C   UNL     1      -2.668  12.890  20.717  0.00  0.00     0.001 A 
HETATM   31  C   UNL     1      -1.341  13.158  21.050  0.00  0.00     0.007 A 
ENDBRANCH  24  25
ENDBRANCH   1  24
TORSDOF 5
ENDMDL
MODEL 8
REMARK VINA RESULT:    -8.005      3.249      4.517
REMARK INTER + INTRA:         -11.480
REMARK INTER:                 -10.111
REMARK INTRA:                  -1.369
REMARK UNBOUND:                -1.369
REMARK  5 active torsions:
REMARK  status: ('A' for Active; 'I' for Inactive)
REMARK    1  A    between atoms: C_7  and  C_8 
REMARK    2  A    between atoms: C_8  and  C_9 
REMARK    3  A    between atoms: C_16  and  C_20 
REMARK    4  A    between atoms: C_17  and  O_19 
REMARK       I    between atoms: C_20  and  N_22 
REMARK    5  A    between atoms: N_22  and  C_24 
ROOT
HETATM    1  C   UNL     1       0.542  12.914  24.559  0.00  0.00     0.071 C 
HETATM    2  N   UNL     1      -0.696  13.295  24.198  0.00  0.00    -0.178 NA
HETATM    3  N   UNL     1      -1.362  12.142  24.046  0.00  0.00    -0.277 N 
HETATM    4  H   UNL     1      -2.338  12.184  23.778  0.00  0.00     0.189 HD
HETATM    5  C   UNL     1       0.651  11.491  24.632  0.00  0.00     0.020 C 
HETATM    6  C   UNL     1      -0.587  11.026  24.199  0.00  0.00     0.065 C 
HETATM    7  C   UNL     1       1.656  10.551  24.945  0.00  0.00     0.035 C 
HETATM    8  C   UNL     1       1.398   9.179  24.756  0.00  0.00     0.066 C 
HETATM    9  C   UNL     1       0.178   8.776  24.185  0.00  0.00     0.083 C 
HETATM   10  C   UNL     1      -0.862   9.679  23.955  0.00  0.00     0.069 C 
ENDROOT
BRANCH   8  11
HETATM   11  C   UNL     1       2.410   8.152  25.098  0.00  0.00     0.260 C 
HETATM   12  O   UNL     1       3.180   7.834  24.184  0.00  0.00    -0.267 OA
HETATM   13  N   UNL     1       2.495   7.602  26.397  0.00  0.00    -0.318 N 
HETATM   14  C   UNL     1       3.691   6.825  26.721  0.00  0.00     0.159 C 
BRANCH  13  15
HETATM   15  C   UNL     1       1.455   7.626  27.384  0.00  0.00     0.040 A 
HETATM   16  C   UNL     1       1.454   8.559  28.427  0.00  0.00     0.072 A 
HETATM   17  C   UNL     1       0.471   8.510  29.410  0.00  0.00     0.118 A 
HETATM   18  F   UNL     1       0.505   9.395  30.418  0.00  0.00    -0.206 F 
HETATM   19  C   UNL     1      -0.543   7.567  29.362  0.00  0.00     0.042 A 
HETATM   20  C   UNL     1      -0.598   6.674  28.302  0.00  0.00     0.005 A 
HETATM   21  C   UNL     1       0.388   6.712  27.311  0.00  0.00     0.030 A 
ENDBRANCH  13  15
ENDBRANCH   8  11
BRANCH   9  22
HETATM   22  O   UNL     1      -0.056   7.489  23.775  0.00  0.00    -0.360 OA
HETATM   23  H   UNL     1       0.313   7.407  22.868  0.00  0.00     0.217 HD
ENDBRANCH   9  22
BRANCH   1  24
HETATM   24  C   UNL     1       1.628  13.937  24.677  0.00  0.00     0.100 C 
BRANCH  24  25
HETATM   25  C   UNL     1       2.319  14.045  23.340  0.00  0.00    -0.052 A 
HETATM   26  C   UNL     1       3.689  14.342  23.282  0.00  0.00     0.014 A 
HETATM   27  C   UNL     1       4.343  14.490  22.052  0.00  0.00    -0.061 A 
HETATM   28  C   UNL     1       5.773  14.934  22.001  0.00  0.00     0.048 C 
HETATM   29  C   UNL     1       3.623  14.298  20.868  0.00  0.00     0.007 A 
HETATM   30  C   UNL     1       2.274  13.952  20.912  0.00  0.00     0.001 A 
HETATM   31  C   UNL     1       1.626  13.824  22.140  0.00  0.00     0.007 A 
ENDBRANCH  24  25
ENDBRANCH   1  24
TORSDOF 5
ENDMDL
MODEL 9
REMARK VINA RESULT:    -7.921      2.941      7.422
REMARK INTER + INTRA:         -11.374
REMARK INTER:                  -9.725
REMARK INTRA:                  -1.650
REMARK UNBOUND:                -1.369
REMARK  5 active torsions:
REMARK  status: ('A' for Active; 'I' for Inactive)
REMARK    1  A    between atoms: C_7  and  C_8 
REMARK    2  A    between atoms: C_8  and  C_9 
REMARK    3  A    between atoms: C_16  and  C_20 
REMARK    4  A    between atoms: C_17  and  O_19 
REMARK       I    between atoms: C_20  and  N_22 
REMARK    5  A    between atoms: N_22  and  C_24 
ROOT
HETATM    1  C   UNL     1      -1.569  10.224  27.109  0.00  0.00     0.071 C 
HETATM    2  N   UNL     1      -2.323  10.384  28.211  0.00  0.00    -0.178 NA
HETATM    3  N   UNL     1      -3.396  11.058  27.777  0.00  0.00    -0.277 N 
HETATM    4  H   UNL     1      -4.121  11.290  28.446  0.00  0.00     0.189 HD
HETATM    5  C   UNL     1      -2.185  10.813  25.963  0.00  0.00     0.020 C 
HETATM    6  C   UNL     1      -3.330  11.427  26.462  0.00  0.00     0.065 C 
HETATM    7  C   UNL     1      -1.883  10.954  24.592  0.00  0.00     0.035 C 
HETATM    8  C   UNL     1      -2.713  11.757  23.784  0.00  0.00     0.066 C 
HETATM    9  C   UNL     1      -3.776  12.465  24.371  0.00  0.00     0.083 C 
HETATM   10  C   UNL     1      -4.146  12.266  25.703  0.00  0.00     0.069 C 
ENDROOT
BRANCH   8  11
HETATM   11  C   UNL     1      -2.455  11.913  22.332  0.00  0.00     0.260 C 
HETATM   12  O   UNL     1      -2.991  11.071  21.601  0.00  0.00    -0.267 OA
HETATM   13  N   UNL     1      -1.669  12.974  21.831  0.00  0.00    -0.318 N 
HETATM   14  C   UNL     1      -1.708  13.217  20.390  0.00  0.00     0.159 C 
BRANCH  13  15
HETATM   15  C   UNL     1      -0.733  13.751  22.591  0.00  0.00     0.040 A 
HETATM   16  C   UNL     1       0.612  13.381  22.700  0.00  0.00     0.072 A 
HETATM   17  C   UNL     1       1.477  14.113  23.505  0.00  0.00     0.118 A 
HETATM   18  F   UNL     1       2.757  13.724  23.619  0.00  0.00    -0.206 F 
HETATM   19  C   UNL     1       1.043  15.240  24.184  0.00  0.00     0.042 A 
HETATM   20  C   UNL     1      -0.271  15.663  24.039  0.00  0.00     0.005 A 
HETATM   21  C   UNL     1      -1.151  14.930  23.236  0.00  0.00     0.030 A 
ENDBRANCH  13  15
ENDBRANCH   8  11
BRANCH   9  22
HETATM   22  O   UNL     1      -4.486  13.423  23.697  0.00  0.00    -0.360 OA
HETATM   23  H   UNL     1      -3.848  14.126  23.442  0.00  0.00     0.217 HD
ENDBRANCH   9  22
BRANCH   1  24
HETATM   24  C   UNL     1      -0.198   9.634  27.229  0.00  0.00     0.100 C 
BRANCH  24  25
HETATM   25  C   UNL     1      -0.276   8.181  26.831  0.00  0.00    -0.052 A 
HETATM   26  C   UNL     1       0.084   7.790  25.532  0.00  0.00     0.014 A 
HETATM   27  C   UNL     1      -0.020   6.453  25.126  0.00  0.00    -0.061 A 
HETATM   28  C   UNL     1       0.242   6.069  23.702  0.00  0.00     0.048 C 
HETATM   29  C   UNL     1      -0.453   5.492  26.046  0.00  0.00     0.007 A 
HETATM   30  C   UNL     1      -0.764   5.858  27.354  0.00  0.00     0.001 A 
HETATM   31  C   UNL     1      -0.675   7.193  27.745  0.00  0.00     0.007 A 
ENDBRANCH  24  25
ENDBRANCH   1  24
TORSDOF 5
ENDMDL
